26
Lattice="32.66666928 0.0 0.0 0.0 32.66666928 0.0 0.0 0.0 32.66666928" Properties=species:S:1:pos:R:3 dft_energy_ryd=-404.45301436 molecule_idx=0 crystal_idx=0 pbc="F F F"
O       13.54695740      17.36463987     -14.37088829
H       14.49274547      16.92518997     -16.88604644
S       14.94839432      17.66198214     -14.66254452
H       14.88761962      14.75332104     -14.05368803
H       15.43662146      14.58290482     -16.38396492
O       15.44515516      19.03513840     -14.63572810
C       15.37077699      16.84065655     -16.23367722
H       15.58737827      16.60097768     -12.61851887
H       15.65701592      15.69097453     -18.99820877
C       15.90257725      15.42143901     -15.85269284
H       16.01016260      18.14611253     -18.65141293
C       15.85257690      15.20230121     -14.32335875
C       15.98330851      16.56623840     -13.64000982
C       16.67770334      16.09473969     -19.02098920
C       16.80842609      17.45868926     -18.33765498
H       16.65083495      14.51489105     -14.00957520
C       16.75841458      17.23955909     -16.80831728
H       17.00397953      16.97003171     -13.66279933
H       17.07361320      16.06003746     -20.04249570
C       17.29021093      15.82034251     -16.42730854
O       17.21581328      13.62577475     -18.02526077
H       17.22437473      18.07808138     -16.27702961
H       17.77338803      17.90768582     -18.60731028
S       17.71267911      14.99913515     -17.99840530
H       18.16825777      15.73579825     -15.77497212
O       19.11397845      15.29632161     -18.29010605
