26
Lattice="26.25223608 0.0 0.0 0.0 26.25223608 0.0 0.0 0.0 26.25223608" Properties=species:S:1:pos:R:3 dft_energy_ryd=-210.57738661 molecule_idx=1 crystal_idx=1 pbc="F F F"
O       10.64999204      12.57804024     -15.57482280
H       10.63630439      14.33618758     -13.68861962
H       11.22262696      13.51854316     -11.41070005
C       11.47341849      12.62618133     -14.64623585
C       11.56184285      13.75401835     -13.64028449
C       11.99599497      13.38821009     -12.17769154
H       12.15135126      11.21628488     -11.66009092
N       12.43894621      11.66424526     -14.45910644
H       12.48692831      10.92626545     -15.15652982
H       12.62341498      15.68791875     -14.11710805
C       12.76046010      12.05148440     -12.02543776
C       12.84283919      14.67102158     -13.77114124
H       13.08916613      15.31698625     -11.57792100
C       13.14855525      14.45360259     -12.25024783
C       13.42893950      11.75099298     -13.39158689
H       13.71354143      12.81705210     -10.17296670
H       13.75989200      13.62859286     -15.49452597
H       13.95086633      10.78629218     -13.34816402
C       13.98185470      12.45687342     -11.17639567
C       14.02694155      14.02025567     -14.50226973
C       14.43185761      13.59138423     -12.12091372
C       14.49015874      12.92412640     -13.53069159
H       14.71947039      11.64591332     -11.08008228
H       14.83096743      14.75911061     -14.63665246
H       15.33895098      14.14213411     -11.84176721
H       15.48018837      12.52375225     -13.78351651
