20
Lattice="29.701932120000002 0.0 0.0 0.0 29.701932120000002 0.0 0.0 0.0 29.701932120000002" Properties=species:S:1:pos:R:3 dft_energy_ryd=-421.92425774 molecule_idx=15 crystal_idx=14 pbc="F F F"
H       12.76968480      14.86319565     -13.23479912
H       12.85918512      16.50399414     -15.22576168
S       13.05639530      11.28866993     -17.73105038
S       13.17061862      13.63277441     -15.86466933
C       13.81825422      15.10082370     -13.00953923
H       13.85187900      15.93705520     -12.30063540
C       13.89509750      16.73801435     -14.94504727
H       13.89388900      17.56473863     -14.22412526
C       13.92945261      12.38595197     -16.88501647
H       14.29319165      14.22206228     -12.55576523
H       14.44790537      17.04035835     -15.84321595
C       14.55548329      15.51235602     -14.29364608
C       14.62182637      14.36219156     -15.26768262
S       15.67997969      12.48821396     -16.85658956
C       15.79078459      13.82521619     -15.73383350
O       15.88433474      15.96137099     -13.85301119
C       17.09743320      15.46085623     -14.27950044
C       17.09622756      14.31783717     -15.31979652
O       18.12213472      15.92481388     -13.82492628
O       18.16019705      13.86345971     -15.74534289
