13
Lattice="22.159826640000002 0.0 0.0 0.0 22.159826640000002 0.0 0.0 0.0 22.159826640000002" Properties=species:S:1:pos:R:3 dft_energy_ryd=-231.69661736 molecule_idx=17 crystal_idx=16 pbc="F F F"
O        8.93907714      11.26171257      -9.07737164
H        9.69445818       9.11890595     -10.13495745
C        9.83522037      11.13883782      -9.91613651
N       10.21063274       9.92369194     -10.47711292
H       10.34711990      13.13162224     -10.01622739
N       10.58560713      12.21899803     -10.40394133
C       11.20306558       9.76493886     -11.44001877
H       11.37520053       8.75325889     -11.79970783
C       11.60855260      12.17294682     -11.35225390
C       11.89676515      10.84283258     -11.88722805
O       12.23193593      13.18312952     -11.72599150
O       12.87918464      10.77567620     -12.83347642
H       13.18862521      11.70889374     -12.93102137
