18
Lattice="26.168040360000003 0.0 0.0 0.0 26.168040360000003 0.0 0.0 0.0 26.168040360000003" Properties=species:S:1:pos:R:3 dft_energy_ryd=-266.74318719 molecule_idx=23 crystal_idx=21 pbc="F F F"
S       10.84656001      11.51932422     -11.83672959
S       10.86231318      12.14249849     -14.86889657
H       10.88928944      14.76791826     -12.65591049
C       11.42405276      12.14951908     -13.28442435
H       11.58458194      14.59616373     -11.02215124
C       11.79098093      14.91984019     -12.05135377
H       12.08833751      15.97455298     -12.07641426
C       12.70440231      12.86850196     -13.12850801
N       12.87280933      14.11513695     -12.61572803
H       13.52966711      10.37090924     -13.65104627
N       13.93632211      12.41249825     -13.47555160
H       13.90943593      11.19160339     -15.18888406
C       14.17127239      11.12357199     -14.12440421
C       14.22216127      14.44605171     -12.64188769
H       14.57885789      15.40049926     -12.27749584
C       14.88683374      13.38292106     -13.18228382
H       15.22526487      10.85216450     -13.99633808
H       15.93897890      13.22844642     -13.38411375
