23
Lattice="31.064040000000002 0.0 0.0 0.0 31.064040000000002 0.0 0.0 0.0 31.064040000000002" Properties=species:S:1:pos:R:3 dft_energy_ryd=-369.59703415 molecule_idx=102 crystal_idx=87 pbc="F F F"
H       13.72666095      16.08480942      11.70454195
H       13.69219042      14.46622847      12.40983023
N       13.98128015      15.43817399      12.44181160
H       14.31313008      17.33295766      16.93293692
C       14.77543640      15.84916361      13.45749904
N       14.92661144      13.50824808      14.44309826
N       15.12497213      17.13001240      13.55028268
C       15.14371988      14.87813177      14.45894618
C       15.38149775      17.18791881      17.15878047
C       15.36061342      13.09139337      15.62012059
H       15.36108289      12.06609629      15.97818491
H       15.48086274      16.54399068      18.04250925
C       15.70872170      15.27376770      15.66307346
H       15.74495286      14.28366855      18.51593846
H       15.84784955      18.15571069      17.36437869
N       15.85332387      14.12300251      16.40750207
N       16.09832754      16.55294809      16.03073693
O       16.14795390      18.89562871      15.01369628
S       16.33199347      17.52643950      14.58033882
C       16.46422756      14.02366845      17.72610451
H       16.81361397      12.99641397      17.87999278
H       17.31783262      14.71250071      17.77163396
O       17.60901566      17.08499764      14.05393294
