16
Lattice="25.74595044 0.0 0.0 0.0 25.74595044 0.0 0.0 0.0 25.74595044" Properties=species:S:1:pos:R:3 dft_energy_ryd=-299.38714228 molecule_idx=106 crystal_idx=89 pbc="F F F"
O       11.32226497      14.79414015     -11.31017719
H       11.92915489      15.55633705     -13.64689974
C       11.98876951      14.13426043     -12.12019698
H       12.00473249      12.11361947     -10.01339362
N       12.30626169      14.63749815     -13.41616714
N       12.47803252      11.93401900     -10.89439138
C       12.54010192      12.82090600     -11.95589748
C       13.01153036      14.01235346     -14.44267172
C       13.14955119      10.80788424     -11.27835571
C       13.26953727      12.13785814     -12.93030540
O       13.20530785      14.49356058     -15.57420051
H       13.25784582       9.94525461     -10.62813107
N       13.51317734      12.75311063     -14.13219657
N       13.65021351      10.89277337     -12.51708786
H       14.09288681      12.77368922     -15.87959143
O       14.17720896      12.08931262     -15.15691330
