19
Lattice="27.430129439999998 0.0 0.0 0.0 27.430129439999998 0.0 0.0 0.0 27.430129439999998" Properties=species:S:1:pos:R:3 dft_energy_ryd=-290.4444335 molecule_idx=104 crystal_idx=88 pbc="F F F"
H       11.97012240      13.82142311     -13.38307982
H       11.90895626      15.08192627     -15.44332628
O       12.30669313      11.85900066     -12.26421512
C       12.87435440      14.38598341     -13.62584080
H       12.44571609      16.41574037     -14.39732619
C       12.70355923      15.41491697     -14.76285856
H       13.22436444      14.85631072     -12.69171197
S       13.69684520      11.46872919     -12.46743069
C       13.97993136      13.46282422     -14.11999866
H       13.94808838      15.52919560     -16.58963238
C       14.05836730      15.39986612     -15.50423807
H       14.26845895      12.88061579     -10.79238846
O       14.05326240      10.08546121     -12.68960385
N       14.43473600      12.31437229     -13.69104466
N       14.48776622      11.91763175     -11.05608667
N       14.56580849      14.06352297     -15.19117800
H       14.74101033      16.18100739     -15.12716920
H       15.38918962      13.65286549     -15.62228332
H       15.49546619      11.76130292     -11.13328366
