36
Lattice="39.351206160000004 0.0 0.0 0.0 39.351206160000004 0.0 0.0 0.0 39.351206160000004" Properties=species:S:1:pos:R:3 dft_energy_ryd=-531.11998171 molecule_idx=116 crystal_idx=99 pbc="F F F"
H       15.34831718      18.06780920     -18.53518053
H       16.00288007      16.89331632     -19.71617636
C       16.23876918      17.49266798     -18.82712307
H       16.50468731      16.81879660     -17.99880174
H       16.74930536      19.87347555     -17.65530129
S       17.00954836      19.47157719     -20.58083289
C       17.39613315      18.45253621     -19.11183426
C       17.67638799      19.31457987     -17.86163892
H       17.70991124      21.69156284     -16.58176448
H       17.85067086      18.62610122     -17.01861973
H       18.22183225      21.63710664     -22.11320646
C       18.71887789      20.14989741     -20.59822096
C       18.70564392      21.22592180     -16.60323823
S       18.82076254      21.44835271     -19.29519928
C       18.83692755      20.34154203     -17.85245477
S       18.84822031      17.48775294     -19.67592333
H       18.86166923      20.09656323     -22.75447328
H       18.82613910      20.61327887     -15.69719034
C       18.95584944      20.83642521     -21.94817092
H       19.47627830      22.00762297     -16.59681878
C       19.73768176      18.95525696     -20.35334810
H       19.96215843      21.27062691     -21.98301923
H       20.13716142      18.66519698     -21.33591764
S       20.50902539      19.54260690     -17.70428915
C       20.97073562      19.23777323     -19.45440303
H       21.42965742      17.15683644     -19.05345905
S       21.93856168      20.75000619     -19.98645421
C       21.94362833      18.04566809     -19.44375950
H       22.29600510      17.85075308     -20.46419833
O       22.23030339      19.36608432     -22.27868138
C       22.55557836      20.34825131     -21.60598195
H       22.80576842      18.26889311     -18.80124632
H       23.32944134      21.62847653     -23.14236183
H       23.54593820      22.29819380     -21.48212742
C       23.55204160      21.38654958     -22.09456317
H       24.55795936      20.94239653     -22.05447717
