15
Lattice="25.33460328 0.0 0.0 0.0 25.33460328 0.0 0.0 0.0 25.33460328" Properties=species:S:1:pos:R:3 dft_energy_ryd=-358.42447344 molecule_idx=110 crystal_idx=93 pbc="F F F"
H        9.96355536      12.93420170     -11.92173988
H       10.72969891      13.87709750     -13.22538619
C       10.85958252      13.01575161     -12.54973065
S       10.97941903      11.48611710     -13.54258219
N       11.90961467      13.75946629     -10.46673250
C       12.06904516      13.21871997     -11.66780094
H       12.41289877      12.75820442     -15.01991006
C       12.56824200      11.89704144     -14.34990850
H       12.86285010      11.03535691     -14.96279215
S       13.28350856      13.95297801      -9.59267314
C       13.36931979      12.82798582     -12.10662344
C       13.64061050      12.18794613     -13.33858706
S       14.71705753      13.07892969     -11.06878641
N       14.90627829      11.81443215     -13.57295425
O       15.72149589      12.14894837     -12.60696981
