16
Lattice="28.3204026 0.0 0.0 0.0 28.3204026 0.0 0.0 0.0 28.3204026" Properties=species:S:1:pos:R:3 dft_energy_ryd=-395.42204033 molecule_idx=128 crystal_idx=110 pbc="F F F"
S       11.07995072      13.15686053     -12.29363862
S       11.62390507      12.73830972     -15.11223418
C       12.05378190      13.50284946     -13.59210803
C       13.23085714      14.32036643     -13.69341749
S       13.16453717      13.57854446     -16.28166531
S       13.87521355      15.19045054     -12.29962297
C       13.87071233      14.41297656     -14.92393786
H       13.80290620      13.04829848     -11.17000012
C       14.58791082      13.78768510     -11.37101011
H       15.08318249      15.48800180     -17.52626589
H       14.95856945      14.20435829     -10.42573145
S       15.34149384      15.32981407     -15.09714666
H       15.42006311      13.33940978     -11.92825141
C       15.79426821      15.01807463     -16.83504995
H       15.87665919      13.94210853     -17.03671541
H       16.77950691      15.48540962     -16.95672259
