10
Lattice="17.458890120000003 0.0 0.0 0.0 17.458890120000003 0.0 0.0 0.0 17.458890120000003" Properties=species:S:1:pos:R:3 dft_energy_ryd=-274.75890249 molecule_idx=142 crystal_idx=122 pbc="F F F"
O        7.10921910      10.48360336      -7.68127742
N        7.75105376       9.91591120      -8.55980769
O        7.76002649      10.22821165      -9.78255923
C        8.58974877       8.78483981      -8.23046469
N        8.75616745       8.32190574      -7.00635356
H        8.88329047       8.98220668     -10.68988001
C        9.35919829       8.01998022      -9.16850468
O        9.44839095       8.18932275     -10.49041317
O        9.61678851       7.27711656      -7.16440583
N       10.00194741       7.07273322      -8.50216492
