26
Lattice="28.40465124 0.0 0.0 0.0 28.40465124 0.0 0.0 0.0 28.40465124" Properties=species:S:1:pos:R:3 dft_energy_ryd=-328.5589996 molecule_idx=160 crystal_idx=140 pbc="F F F"
H       11.37762430      10.84402121     -14.13999180
H       11.67401465      15.52308230     -13.49762295
N       11.94116098      12.80369053     -13.56871747
C       12.18555539      11.53847644     -13.93212217
H       12.30038792      16.39583160     -15.68775869
H       12.37572100      14.61766049     -15.61262308
N       12.65671355      15.65860091     -13.74216324
C       12.81349763      15.55179744     -15.21032138
H       13.19905478      14.78708692     -11.93917404
N       13.20440308      13.29323066     -13.41396056
C       13.45058611      14.69743339     -13.00417562
N       13.50878504      11.19159001     -14.01274654
C       14.12412870      12.32782964     -13.67522873
C       14.26785776      15.60732786     -15.54019961
N       14.87022652      15.91175032     -16.69249016
C       14.96681305      14.96474758     -13.17204450
N       15.19831183      15.32348061     -14.59191744
H       15.23368420      15.83528655     -12.55905205
C       15.58240592      12.62286163     -13.55749753
N       15.75473543      13.83477513     -12.72639513
H       16.02205059      12.74230065     -14.56642745
H       16.08289210      11.77803275     -13.06714563
C       16.19731268      15.79733350     -16.37001057
N       16.45616989      15.44644870     -15.10427690
H       16.73966851      14.10519268     -12.71752855
H       16.99776192      15.98165400     -17.07993188
