24
Lattice="39.18980016 0.0 0.0 0.0 39.18980016 0.0 0.0 0.0 39.18980016" Properties=species:S:1:pos:R:3 dft_energy_ryd=-322.40295485 molecule_idx=169 crystal_idx=147 pbc="F F F"
O       16.75776031      18.12973598     -15.71612515
H       17.01158890      17.40805963     -15.11037038
H       17.25770412      23.83217818     -22.41781366
H       16.76672712      19.71320556     -17.49308669
N       17.84149262      18.16459830     -16.61782393
H       17.51487117      20.95856127     -19.39559435
C       17.66716477      19.08358258     -17.50807658
O       18.09602989      23.35079031     -22.54701408
N       18.06088240      22.41020365     -21.49571305
C       18.41472097      20.34816423     -19.47990921
C       18.65488308      19.31801195     -18.56306830
C       19.11566669      21.66626361     -21.51323279
C       19.32878679      20.60919831     -20.52395177
H       19.88603227      21.81013341     -22.28254694
C       19.83267962      18.54666011     -18.67933412
H       20.01957396      17.74989820     -17.95855138
C       20.48930148      19.83366148     -20.62999290
C       20.75362631      18.80381844     -19.70145791
H       21.20288728      20.01972839     -21.43356084
H       22.10229889      17.19080430     -19.02917375
C       21.97540285      17.99926676     -19.76197697
N       22.89030808      18.24213336     -20.64004254
O       23.97382970      17.35147257     -20.49914508
H       24.58207938      17.65616804     -21.19873620
