22
Lattice="29.117695320000003 0.0 0.0 0.0 29.117695320000003 0.0 0.0 0.0 29.117695320000003" Properties=species:S:1:pos:R:3 dft_energy_ryd=-323.06084936 molecule_idx=174 crystal_idx=151 pbc="F F F"
H       11.47425839      15.47454379     -15.98655390
H       11.58122697      16.56527131     -14.57943217
C       12.15471924      16.10295624     -15.39437228
H       12.56300582      16.88990269     -16.04187591
S       12.62727601      13.92224520     -13.82538851
C       13.30382933      15.27732874     -14.81743932
H       13.78231929      12.33974375     -12.54540636
H       13.98340637      15.91388323     -14.22786426
H       14.07278679      14.45974961     -11.26557853
C       14.14762820      13.24089532     -13.06110312
S       14.34248316      14.67508177     -16.26109960
C       14.79604669      14.19028254     -12.04708788
O       14.85374210      15.93401430     -16.91877297
H       15.13439562      15.11799813     -12.52609649
S       15.33573006      12.56635615     -14.28297995
H       15.66927926      13.71078384     -11.58401405
C       15.76539674      14.06530190     -15.20289503
H       15.99460793      14.90232935     -14.52473928
H       16.73280092      12.94406557     -16.80367951
C       16.94970041      13.77996601     -16.12392889
H       17.16948108      14.67330122     -16.72266530
H       17.83272742      13.52084718     -15.52387446
