13
Lattice="22.02562152 0.0 0.0 0.0 22.02562152 0.0 0.0 0.0 22.02562152" Properties=species:S:1:pos:R:3 dft_energy_ryd=-116.90793749 molecule_idx=177 crystal_idx=154 pbc="F F F"
H        9.02380057      10.19523184     -10.04526218
H        9.09655000      12.30039068     -11.40128701
C        9.93745658      10.79172393      -9.91947179
C        9.97988028      12.13832581     -10.76868146
H       10.12958506      10.93532994      -8.84715922
H       10.17015061      13.04463047     -10.17798221
C       11.14312823      10.33689443     -10.73827103
C       11.19179609      11.54825530     -11.48661968
C       12.15630962       9.53680300     -11.16803984
C       12.23654307      11.46314122     -12.35462727
H       12.54020149       8.54838186     -10.94400689
H       12.69028652      12.08200798     -13.11997923
O       12.84618084      10.22075256     -12.17048118
