22
Lattice="41.74864092 0.0 0.0 0.0 41.74864092 0.0 0.0 0.0 41.74864092" Properties=species:S:1:pos:R:3 dft_energy_ryd=-475.9850295 molecule_idx=211 crystal_idx=183 pbc="F F F"
H       19.16022326      25.40244503     -24.15849013
S       19.40445348      21.72605000     -21.24636226
N       19.59323930      23.61016243     -23.16854578
S       19.54511432      19.93888248     -20.26200170
C       19.78841114      24.51669719     -24.12426775
H       20.06638369      16.21319766     -17.48087753
N       20.20182693      18.05148691     -18.46769980
C       20.59642491      17.15743839     -17.56366447
N       20.52950366      22.63916399     -23.41846511
C       20.85310308      24.14371570     -24.99761904
C       20.60588647      21.52003896     -22.57222987
C       20.92673872      20.23069545     -19.14237046
H       21.23133059      24.68679339     -25.85556435
N       21.06291531      19.10682909     -18.30920659
C       21.30824135      22.93700951     -24.52086681
C       21.71388957      17.62480818     -16.81025752
S       21.64794786      20.28460679     -22.79515583
C       21.98888268      18.87667514     -17.30857326
S       21.90262833      21.53555430     -19.07342981
H       22.24175780      17.10911984     -16.01630144
H       22.09232767      22.25929648     -24.83603335
H       22.73425194      19.62481508     -17.06749916
