36
Lattice="38.037202560000004 0.0 0.0 0.0 38.037202560000004 0.0 0.0 0.0 38.037202560000004" Properties=species:S:1:pos:R:3 dft_energy_ryd=-376.34211918 molecule_idx=213 crystal_idx=184 pbc="F F F"
H       15.39204235      20.02803344     -20.71069158
H       16.26664084      19.69464105     -23.00178798
H       16.37897407      18.17324225     -22.07804316
C       16.47640650      19.97306268     -20.88211534
C       16.78094975      19.19343123     -22.16400917
H       16.85046172      21.00603426     -20.95504634
S       17.11757741      19.19122087     -19.36327083
H       18.09291608      17.04602598     -17.97465209
C       18.27642605      19.13178122     -22.48952351
H       18.44382830      18.62239943     -23.44848625
H       18.49470792      21.50624851     -18.19625239
H       18.60803594      19.43054116     -16.99648972
H       18.69994288      20.14467477     -22.57665639
H       18.87263266      17.29997586     -15.52314409
C       18.93096387      19.13089693     -19.74724896
H       18.96510651      21.14031093     -20.62905471
C       19.15225975      16.98912148     -18.27139420
H       19.19180104      16.37100508     -19.17874048
S       19.25338003      18.16352186     -21.29119159
C       19.51455711      20.55157789     -19.88335207
C       19.52160139      21.31919127     -18.55606005
H       19.56963406      15.34382959     -16.92091550
C       19.65776426      19.28161981     -17.31755153
C       19.66631428      18.40558987     -18.58919184
C       19.91548092      17.22754164     -15.87621369
C       19.96087697      16.34915620     -17.13482679
O       20.13240486      22.58541405     -18.68514781
O       20.25329178      20.57540330     -17.56666962
H       20.38564193      19.28738315     -15.29915247
C       20.44487301      18.63542941     -16.18222340
H       20.49916473      16.77665693     -15.06061784
H       20.56044287      20.46325901     -20.22252825
H       20.72281796      18.33376026     -18.90798130
H       21.01016302      16.22645437     -17.45346069
H       21.04694981      22.42902550     -18.99225031
H       21.50364552      18.58321668     -16.48473620
