26
Lattice="37.973116440000005 0.0 0.0 0.0 37.973116440000005 0.0 0.0 0.0 37.973116440000005" Properties=species:S:1:pos:R:3 dft_energy_ryd=-294.94518941 molecule_idx=224 crystal_idx=193 pbc="F F F"
H       17.09910194      13.33752516     -17.71609674
N       17.21614127      14.29635765     -17.40217521
H       17.61364578      14.39967666     -16.47184414
C       17.61689827      15.15870937     -18.42561376
O       17.58716230      14.82676638     -19.61710984
H       17.89145691      16.58563996     -16.96260518
N       17.99437933      16.41495402     -17.95968499
H       18.11474091      16.69385329     -20.66000507
C       18.43958325      17.57346487     -20.11234314
C       18.43147517      17.53350582     -18.70000978
H       18.84448015      18.74155274     -21.87838443
C       18.85398349      18.72932581     -20.78731315
H       18.88620306      18.64483367     -16.87124255
C       18.86476944      18.65077475     -17.96312672
H       18.95423451      21.76256080     -21.03135450
C       19.26554211      19.83908673     -20.05356891
C       19.27772736      19.78013758     -18.65645715
H       19.74305936      23.93375898     -19.43302321
C       19.78508120      21.06825240     -18.11017700
C       19.74075664      21.20324912     -20.49158662
O       19.94594790      21.40241874     -16.92760096
N       20.05906434      21.85251418     -19.22272177
C       20.52725562      23.21919049     -19.13137198
H       20.62815342      21.15708382     -21.14787007
H       20.79490868      23.40748274     -18.08376474
H       21.41098283      23.37405957     -19.76968364
