38
Lattice="43.05613536 0.0 0.0 0.0 43.05613536 0.0 0.0 0.0 43.05613536" Properties=species:S:1:pos:R:3 dft_energy_ryd=-438.47562932 molecule_idx=235 crystal_idx=203 pbc="F F F"
H       18.26011754      19.02449730     -25.71176652
H       18.40085109      21.48912995     -25.17909396
H       19.10133635      19.06445203     -21.55958361
S       19.34075878      19.35598400     -18.92279598
C       19.33327461      19.02761021     -25.94414682
C       19.48228482      21.48415996     -25.37177337
H       19.46325582      19.24443747     -27.01300535
H       19.64824507      21.75740377     -26.42323526
O       19.73777897      19.67731324     -23.71450611
N       19.81163485      19.79167593     -21.48614241
H       19.74786049      18.03195032     -25.73502736
H       19.97287277      22.23024993     -24.73580475
C       20.06034813      20.09171610     -25.12380967
C       20.14303617      20.11565379     -20.15031021
C       20.30185855      20.33278725     -22.67213291
O       21.12196004      21.25906102     -22.74325251
N       21.15043178      21.04767971     -20.07564283
O       21.32796758      21.50854071     -17.77562350
C       21.56883769      20.02996315     -25.37441491
H       21.50599108      21.38635360     -20.98580638
H       21.69786869      23.90310017     -17.28481031
H       21.74271471      20.07214591     -26.45858725
C       21.70250849      21.64589359     -18.92790935
H       21.93186459      24.87623500     -18.77212652
H       21.97861002      19.08230136     -24.99939885
H       22.09295146      20.86275880     -24.89575708
C       22.44128024      24.37997267     -17.93395222
O       22.73796306      22.41587191     -19.38781070
H       22.98209867      25.14206972     -17.35596247
H       23.40739493      22.12623684     -16.66123814
C       23.44204886      23.35189041     -18.46392442
H       23.96386315      24.51161052     -20.22542880
C       24.13666415      22.57690270     -17.34273232
C       24.46742749      24.00614567     -19.39009606
H       24.77439367      21.78811976     -17.76535676
H       24.77640611      23.27110912     -16.77921652
H       25.04842716      24.74666247     -18.82415190
H       25.15538049      23.25092208     -19.79423432
