7
Lattice="16.7026104 0.0 0.0 0.0 16.7026104 0.0 0.0 0.0 16.7026104" Properties=species:S:1:pos:R:3 dft_energy_ryd=-45.53580836 molecule_idx=249 crystal_idx=214 pbc="F F F"
H        7.22264687       8.95283920      -9.22625837
H        7.91775278       7.02543870      -7.99528293
N        8.22329845       8.74830829      -9.17107178
H        8.29796991       8.45633565      -7.00150406
C        8.51037451       7.95014869      -7.96277046
H        8.69934163       9.65216866      -9.11883713
H        9.56970690       7.65585181      -7.96536630
