29
Lattice="35.07680484 0.0 0.0 0.0 35.07680484 0.0 0.0 0.0 35.07680484" Properties=species:S:1:pos:R:3 dft_energy_ryd=-396.18024318 molecule_idx=250 crystal_idx=215 pbc="F F F"
H       13.69262072      17.55207274     -17.32254032
H       14.11669703      19.03939805     -18.20855149
C       14.42424787      18.36529335     -17.40087352
H       14.50462523      18.89768767     -16.44831394
O       14.92915030      16.92056392     -19.66033799
N       15.75473988      17.81154768     -17.71034112
C       15.86034028      17.00204732     -18.86125595
H       16.19180700      14.47133406     -19.89298943
N       16.71401381      18.27698200     -15.57520192
H       16.75143826      15.72077672     -21.03477853
C       16.77918005      17.88761406     -16.81008438
C       16.97775146      15.21050674     -20.09171807
N       17.02130995      16.20592383     -19.00409808
H       17.84054344      20.22773045     -17.37452025
H       17.95537442      14.72190283     -20.12963459
C       18.04170185      18.04181855     -15.04252754
C       18.13572197      16.24211867     -18.15692921
C       18.17241608      17.50852117     -17.29278622
O       18.39863060      18.28633831     -13.89806741
O       18.70398812      18.49057226     -18.22038262
N       18.84119444      17.44407824     -16.03265837
C       18.82395601      19.81833916     -17.65801646
O       19.01850503      15.38947425     -18.16100628
H       19.26710987      20.42784385     -18.45305034
H       19.48358879      19.81703871     -16.77665468
C       20.27585231      17.23916649     -15.87493229
H       20.46232772      17.00778779     -14.82018871
H       20.58487926      16.40218272     -16.50993098
H       20.84567301      18.14272330     -16.14701396
