23
Lattice="36.72415152 0.0 0.0 0.0 36.72415152 0.0 0.0 0.0 36.72415152" Properties=species:S:1:pos:R:3 dft_energy_ryd=-543.13104494 molecule_idx=253 crystal_idx=217 pbc="F F F"
S       13.18911004      19.61271947      17.19389571
S       14.69687684      20.18722328      16.12268378
N       16.09286071      19.49167490      16.45873962
S       16.17311523      18.36157053      17.67821562
H       17.35978851      15.79483662      18.06840916
H       17.78973116      17.53677471      20.11395146
S       17.80343084      22.97229966      20.75077632
C       17.93053688      17.88943279      17.46690818
H       18.08076324      17.83191246      16.38369292
C       18.18766979      16.50469635      18.17322000
S       18.20676470      20.22384075      19.02061799
C       18.57643869      16.96381519      19.60104326
H       18.91084820      16.12830110      20.22790946
C       18.99696635      18.82188914      18.13904571
C       19.54485270      16.06359236      17.63851425
S       19.57533414      22.31352790      20.32170101
N       19.62778887      20.96194129      19.47591220
H       19.68838051      15.31489318      16.86144173
H       19.67110066      19.26838500      17.39990825
C       19.75056532      17.84278815      19.11031757
H       20.35541824      18.36945138      19.85480585
C       20.47364358      16.86303297      18.19403710
H       21.53621377      16.89959983      17.96245177
