23
Lattice="36.72415152 0.0 0.0 0.0 36.72415152 0.0 0.0 0.0 36.72415152" Properties=species:S:1:pos:R:3 dft_energy_ryd=-543.13104494 molecule_idx=252 crystal_idx=217 pbc="F F F"
S       13.18911004      17.10190653     -19.52073028
S       14.69687684      16.52740272     -20.59194221
N       16.09286071      17.22295110     -20.25588637
S       16.17311523      18.35305547     -19.03641037
H       17.35978851      20.91978938     -18.64621683
H       17.78973116      19.17785129     -16.60067453
S       17.80343084      13.74232634     -15.96384967
C       17.93053688      18.82519321     -19.24771781
H       18.08076324      18.88271354     -20.33093307
C       18.18766979      20.20992965     -18.54140599
S       18.20676470      16.49078525     -17.69400800
C       18.57643869      19.75081081     -17.11358273
H       18.91084820      20.58632490     -16.48671653
C       18.99696635      17.89273686     -18.57558028
C       19.54485270      20.65103364     -19.07611174
S       19.57533414      14.40109810     -16.39292498
N       19.62778887      15.75268471     -17.23871379
H       19.67110066      17.44624100     -19.31471774
H       19.68838051      21.39973282     -19.85318426
C       19.75056532      18.87183785     -17.60430842
H       20.35541824      18.34517462     -16.85982014
C       20.47364358      19.85159303     -18.52058889
H       21.53621377      19.81502617     -18.75217422
