23
Lattice="38.68065684 0.0 0.0 0.0 38.68065684 0.0 0.0 0.0 38.68065684" Properties=species:S:1:pos:R:3 dft_energy_ryd=-323.64069506 molecule_idx=264 crystal_idx=226 pbc="F F F"
H       17.32222216      20.96601524     -22.88180768
H       17.71359609      21.56161927     -20.42400323
C       17.88019728      20.04153926     -22.99692615
N       17.89594965      19.42147567     -24.18520285
C       18.32289199      20.79932682     -19.94127797
H       18.37484814      21.60875199     -17.87976606
C       18.63979033      19.34143689     -22.01373811
C       18.67737966      20.82283722     -18.57040559
N       18.66381166      18.32562074     -23.97428107
H       18.82296848      17.68145706     -24.74106147
C       18.82232113      19.69963055     -20.62230512
C       19.13372494      18.22870931     -22.69840801
C       19.45249624      19.74070456     -18.17779078
S       19.66966948      20.39890461     -15.47793364
S       19.74121862      18.69255898     -19.54207516
H       19.75903425      17.40426696     -22.37207420
C       19.98499116      19.40711846     -16.87626920
C       20.57587890      19.35864864     -14.44451996
H       20.66855259      19.59191808     -13.38805198
C       20.76678259      18.31653704     -16.51695350
H       21.07994781      17.56042827     -17.23540455
C       21.10069743      18.29023340     -15.13780370
H       21.70196372      17.51119534     -14.67287433
