33
Lattice="44.732429280000005 0.0 0.0 0.0 44.732429280000005 0.0 0.0 0.0 44.732429280000005" Properties=species:S:1:pos:R:3 dft_energy_ryd=-323.73040272 molecule_idx=265 crystal_idx=227 pbc="F F F"
H       19.00013981      24.86561659     -26.39792617
H       19.46427557      23.35104575     -27.23313841
H       19.52591893      26.16924505     -24.74288774
C       19.83808853      24.20361573     -26.65423579
H       20.29500517      26.20116772     -23.13681821
C       20.44740525      25.94003016     -24.19184548
C       20.53621926      23.71546665     -25.42275863
H       20.52972186      24.77978660     -27.28970274
C       20.81827377      24.48460383     -24.31644800
O       20.88971038      22.40078932     -25.52262677
H       21.24133809      26.59695542     -24.58216661
C       21.50907469      23.80024594     -23.28257080
C       21.58530102      21.66709607     -24.47715997
O       21.86702167      24.41341472     -22.11998176
C       21.88142539      22.46629645     -23.33050938
O       21.82116174      20.48864325     -24.70299043
H       22.00039492      23.33219801     -20.34087805
C       22.54822010      22.11387962     -22.09338434
C       22.55471254      23.40210042     -21.28945649
H       22.91247035      20.11785238     -22.52231650
C       23.04486882      20.89125738     -21.76218387
H       23.56637384      23.78808271     -21.08939025
C       23.73769314      20.47189253     -20.55343286
H       23.72256156      22.34982460     -19.44126829
H       23.94815085      18.46222145     -21.31899962
C       24.03186155      21.30726376     -19.44778815
C       24.16691787      19.12349166     -20.47882886
C       24.72605909      20.81690531     -18.33920068
C       24.85713446      18.63600056     -19.37078978
H       24.94440769      21.48364181     -17.50420604
C       25.14775346      19.48284893     -18.29297921
H       25.16859743      17.59131421     -19.34576253
H       25.69330425      19.10676835     -17.42693088
