24
Lattice="30.2353128 0.0 0.0 0.0 30.2353128 0.0 0.0 0.0 30.2353128" Properties=species:S:1:pos:R:3 dft_energy_ryd=-520.90476621 molecule_idx=278 crystal_idx=239 pbc="F F F"
O       12.09542942      17.15509304     -14.90630638
H       12.62303726      15.04012605     -15.53654162
N       13.26829801      17.32835281     -14.56945009
C       13.71042699      15.12589463     -15.57999801
H       13.78729312      12.97395236     -14.94760277
O       13.76011211      18.34866723     -14.08382790
O       14.09694895      15.35830591     -16.94716103
N       14.13815735      16.19014985     -14.68688348
C       14.45943431      13.79648811     -15.19867237
O       15.17536416      13.44751844     -16.39763008
N       15.34212219      14.04777710     -14.07032180
C       15.35304515      14.68829795     -17.08472928
O       15.09953850      11.87340150     -13.44888184
H       15.52042747      14.47769792     -18.14818245
C       15.56890226      16.44212943     -14.63879673
H       15.75900420      17.26353260     -13.94523765
N       15.78632400      12.89048432     -13.33665384
O       16.11785185      16.78894523     -15.92400652
C       16.31844165      15.11097581     -14.25675123
O       16.77356752      13.04632057     -12.61603245
C       16.56412387      15.54519646     -16.47131297
H       16.92673706      15.19553103     -13.35415404
O       17.19310591      14.87564646     -15.37532038
H       17.32288296      15.75009152     -17.23612135
