16
Lattice="23.96577456 0.0 0.0 0.0 23.96577456 0.0 0.0 0.0 23.96577456" Properties=species:S:1:pos:R:3 dft_energy_ryd=-218.30718434 molecule_idx=270 crystal_idx=232 pbc="F F F"
H        9.46500001      11.17584356     -12.31653758
H        9.64892543      12.45752740     -13.52290352
C       10.19911811      11.81794776     -12.81923884
O       10.34567148      13.45800910     -10.95830235
C       10.86446787      12.71240608     -11.77545719
H       11.30072689       9.95282671     -13.27482838
C       11.34117929      11.02878347     -13.49539965
H       11.37330582      11.13903948     -14.58709942
N       12.25150233      12.51534291     -11.92900416
C       12.63414088      11.57891676     -12.90589489
H       12.91239912      12.15944720      -9.43542622
O       13.17403213      13.25414483     -11.21847996
C       13.71743317      12.45405331     -10.12432942
O       13.79020352      11.27696703     -13.17075403
H       14.24274685      11.57799293     -10.52860678
H       14.42334059      13.12494499      -9.62193116
