15
Lattice="19.87775748 0.0 0.0 0.0 19.87775748 0.0 0.0 0.0 19.87775748" Properties=species:S:1:pos:R:3 dft_energy_ryd=-285.45958313 molecule_idx=277 crystal_idx=238 pbc="F F F"
S        8.84417751       8.09361557      -8.56054456
O        9.07886946       8.31125949     -10.19796249
H        8.96869110       9.88448475     -12.18953049
O        9.31785626       9.65766477      -8.22719320
O        9.17140661      11.37579285     -10.76858143
C        9.73329092      10.27572496     -11.50821722
H        9.52699073      12.12624843      -8.87212857
C       10.04092137      11.52609553      -9.63204472
C       10.16734404       9.24660362     -10.45629957
C       10.34673804      10.10090905      -9.16084376
O        9.86940054       7.17423814      -8.06018452
H       10.61851090      10.61044900     -12.08468504
H       11.06711717       8.68095204     -10.73016647
H       10.98675956      12.02168978      -9.92983370
H       11.33249265       9.98483887      -8.69235110
