40
Lattice="38.987381160000005 0.0 0.0 0.0 38.987381160000005 0.0 0.0 0.0 38.987381160000005" Properties=species:S:1:pos:R:3 dft_energy_ryd=-492.25028157 molecule_idx=286 crystal_idx=246 pbc="F F F"
H       16.95457487      18.19244741     -16.48207181
H       17.14706315      18.65777677     -14.01385698
H       17.31103891      19.61168477     -21.66336791
O       17.59493134      18.76770278     -21.24243697
H       17.60091129      19.83767611     -16.20666375
C       17.80027702      18.76338109     -16.07308537
H       17.69932200      18.90994558     -18.81039458
C       18.04459815      18.42081943     -14.60302244
H       18.26813146      17.35257550     -14.47150866
H       18.36816455      18.60004194     -23.87709673
H       18.88564478      19.00118601     -14.19868024
O       18.62680711      21.00815260     -22.20935740
S       18.82184752      20.96571947     -18.66831568
C       18.76425517      19.14011488     -18.65871643
C       19.39818070      18.26202580     -23.70465145
H       18.94450634      16.90685238     -22.08163545
C       19.02401383      18.84231166     -21.21050896
H       19.62326864      17.43008051     -24.38420390
S       19.28719829      18.38121457     -17.06305036
C       19.42197529      20.25652431     -21.64357201
C       19.57015823      17.79457436     -22.26731327
H       20.08967612      19.08781777     -23.92797675
O       19.47318943      17.02537518     -19.68940946
C       19.55762893      18.46723279     -19.79864709
H       20.11016930      22.58226977     -16.49358573
H       19.43299399      16.82367018     -18.72666130
H       20.55132666      22.62693951     -21.39823264
C       20.56372506      21.30402059     -18.20253760
H       20.43916101      20.87941941     -16.07632207
H       20.90296233      22.10441123     -18.87592242
H       20.61497954      18.77493667     -19.75247496
O       20.73418999      20.53624439     -21.45560697
C       20.73055415      21.70793167     -16.73501249
O       20.95566034      17.47780562     -22.06725229
C       21.13912344      21.85766990     -21.91769618
H       20.97358728      21.94665166     -22.99940205
H       21.14954999      20.40587156     -18.44124419
H       20.98501042      16.93674684     -21.25309176
H       21.78133045      21.96530384     -16.52816000
H       22.20316221      21.93172261     -21.67210268
