18
Lattice="34.82136 0.0 0.0 0.0 34.82136 0.0 0.0 0.0 34.82136" Properties=species:S:1:pos:R:3 dft_energy_ryd=-493.28478812 molecule_idx=300 crystal_idx=260 pbc="F F F"
H       12.93068822     -17.60531166      15.48379827
C       14.01965075     -17.53437300      15.51604410
H       14.17405290     -16.04873851      14.00252200
S       14.80365939     -18.55361704      16.73509198
C       14.69106798     -16.69214550      14.71749599
S       16.24765770     -17.42031888      19.09089079
C       16.02464741     -17.42085236      17.33142986
S       16.45065152     -16.48792010      14.77670504
C       16.70719320     -16.57692683      16.52501679
S       17.88777708     -15.42139864      17.17036700
C       18.01567124     -17.25698340      19.20894011
S       18.80521681     -18.36507868      20.35362882
C       18.70675670     -16.42005044      18.39714139
C       20.23444801     -18.86344871      19.44097237
S       20.48271503     -16.34210420      18.38679993
H       20.48987450     -19.92051284      19.53746175
C       20.91688471     -18.03794639      18.63626558
H       21.76356130     -18.38444738      18.04160273
