21
Lattice="28.6437438 0.0 0.0 0.0 28.6437438 0.0 0.0 0.0 28.6437438" Properties=species:S:1:pos:R:3 dft_energy_ryd=-285.40255167 molecule_idx=303 crystal_idx=263 pbc="F F F"
H       11.23776689      13.45269461     -14.90001820
H       11.21694314      14.92598077     -13.88136123
H       11.44675239      15.04776670     -15.67098721
C       11.65558072      14.46144953     -14.77057301
N       12.99609386      14.39868360     -12.12209710
N       13.10853676      14.39539086     -14.57916163
O       13.48508315      14.38439570     -16.85580947
C       13.66362804      14.34789928     -13.31948338
H       13.81968730      14.36074438     -10.13366527
C       13.94149319      14.34697570     -15.70604281
C       13.97256770      14.34038897     -11.20821033
C       15.03525940      14.25561384     -13.14061416
N       15.21568407      14.25322671     -11.76820634
N       15.33506811      14.25906347     -15.47235561
H       15.82882310      13.44193473     -17.35147410
C       15.98837413      14.20883560     -14.20651945
H       16.07380824      15.19715675     -17.21364537
H       16.11498098      14.19623274     -11.29908810
C       16.16940401      14.24103282     -16.68292272
H       17.20445007      14.07912914     -16.36690021
O       17.22336199      14.13875117     -14.08421150
