30
Lattice="40.18750092 0.0 0.0 0.0 40.18750092 0.0 0.0 0.0 40.18750092" Properties=species:S:1:pos:R:3 dft_energy_ryd=-333.84991682 molecule_idx=302 crystal_idx=262 pbc="F F F"
H       17.41725803      19.77336744     -23.62586626
O       17.73583348      18.71923834     -21.30475768
H       17.96668481      21.32509312     -25.52050604
C       18.24442961      20.48078886     -23.56107643
C       18.55354384      21.34053342     -24.60230838
C       18.67825045      19.54998559     -21.28407389
H       18.53557742      18.14994289     -19.20529206
C       19.00334446      20.48107581     -22.37044827
H       18.94272245      17.21938213     -16.96306397
N       19.32332003      18.78837762     -19.07419567
C       19.56358022      19.63981618     -20.11961001
C       19.78124329      17.91041350     -16.86369263
C       19.63951985      22.23617819     -24.47499747
C       20.09569264      21.39012154     -22.25319134
H       19.88965242      22.90625727     -25.29830603
H       20.29618397      17.26796893     -14.88580440
C       20.08356352      18.79189762     -17.92654570
C       20.54422766      17.94061567     -15.70765152
C       20.61368341      20.54455886     -20.05875304
C       20.40030040      22.26891491     -23.31759289
N       20.85426114      21.39555036     -21.10447418
H       21.23906466      22.95969445     -23.21851425
C       21.17569731      19.70124105     -17.80900712
H       21.64205734      22.03396204     -20.97364264
C       21.49900017      20.63432612     -18.89423914
C       21.62996323      18.83656550     -15.58002575
C       21.93665116      19.69918342     -16.61966368
H       22.21861522      18.84980217     -14.66297458
O       22.44062237      21.46599428     -18.87294542
H       22.76337232      20.40706946     -16.55469621
