6
Lattice="16.3665684 0.0 0.0 0.0 16.3665684 0.0 0.0 0.0 16.3665684" Properties=species:S:1:pos:R:3 dft_energy_ryd=-84.82018656 molecule_idx=311 crystal_idx=269 pbc="F F F"
H        6.95317245       7.00528577      -8.18001372
H        7.50988256       9.51202205      -8.19634157
C        8.07000595       7.52417140      -8.17632373
N        8.29920800       8.87178949      -8.18416409
O        9.01627295       6.93466444      -8.16862454
H        9.24289792       9.24350672      -8.18597218
