16
Lattice="23.45721336 0.0 0.0 0.0 23.45721336 0.0 0.0 0.0 23.45721336" Properties=species:S:1:pos:R:3 dft_energy_ryd=-211.74227739 molecule_idx=322 crystal_idx=278 pbc="F F F"
H        9.60725162      10.92186082      -9.74097058
O        9.66767888      10.23032022     -11.47133856
H       10.01764305       9.75758318     -13.23337422
O       10.26581896      11.59251996      -9.39650715
C       10.70068642      10.98332880     -11.60007252
O       10.78360678      10.12843189     -13.76103673
C       11.08873990      11.78075160     -10.45837153
C       11.37887269      10.96835937     -12.87723357
C       12.15100109      12.66622724     -10.31529811
H       12.21569164      13.13710392      -9.33170119
C       12.50759673      11.66715272     -13.29129346
H       12.81027950      11.46373642     -14.32121888
C       13.13194759      13.01700916     -11.25219261
C       13.28840908      12.57757629     -12.56599374
H       13.87498076      13.73406772     -10.89966063
H       14.13537399      12.99954937     -13.10931514
