27
Lattice="39.952694879999996 0.0 0.0 0.0 39.952694879999996 0.0 0.0 0.0 39.952694879999996" Properties=species:S:1:pos:R:3 dft_energy_ryd=-386.99500881 molecule_idx=353 crystal_idx=306 pbc="F F F"
H       18.79276453      19.28654054      14.61696693
C       19.00004507      19.07569885      15.66232065
H       19.02992664      16.82746588      15.87501725
C       19.12211161      17.81614335      16.31024813
N       19.18156660      20.09436540      16.50846223
C       19.39393904      18.11861975      17.62781058
N       19.42343587      19.49331565      17.71137577
H       19.45409806      22.19266732      17.86337432
H       19.56593820      17.50792167      18.50427605
C       19.67814967      21.66900383      18.78699802
C       19.69735898      20.26863210      18.85860741
O       19.70400633      24.40096290      18.90411014
N       19.97199225      19.57454986      19.97199718
C       19.97199726      22.33311384      19.97199572
N       19.97200386      23.83357777      19.97199820
O       20.24000963      24.40095995      21.03987896
C       20.24662792      20.26863149      21.08538591
C       20.26583944      21.66900294      21.15699705
H       20.37805939      17.50792157      21.43971584
H       20.48989259      22.19266591      22.08061967
N       20.52055325      19.49331503      22.23261742
C       20.55005440      18.11861915      22.31618182
N       20.76241988      20.09436460      23.43553163
C       20.82188216      17.81614263      23.63374461
H       20.91406719      16.82746573      24.06897564
C       20.94394481      19.07569807      24.28167273
H       21.15122227      19.28654101      25.32702703
