18
Lattice="30.96767268 0.0 0.0 0.0 30.96767268 0.0 0.0 0.0 30.96767268" Properties=species:S:1:pos:R:3 dft_energy_ryd=-218.51421246 molecule_idx=370 crystal_idx=320 pbc="F F F"
H       12.66265499      12.85572516     -16.62520150
H       13.78337831      15.12641704     -16.60930546
C       13.75769617      12.95150280     -16.61072244
H       13.79595839      14.40708017     -14.99768174
H       14.12308458      12.84853954     -17.64337341
H       14.16751405      12.11310941     -16.02714781
C       14.19520596      14.29447871     -16.01850526
C       15.72985482      14.42517247     -15.98299441
S       15.76928862      16.44430569     -13.94522763
H       16.14462893      14.28239002     -16.99231377
H       16.14461736      13.62760930     -15.34354802
C       16.20575342      15.76480361     -15.51674417
H       16.80374319      18.83871102     -12.60941132
C       16.73393457      17.83479031     -14.39960043
N       16.84162109      18.96871047     -13.61595959
N       16.96551677      16.56431889     -16.22253333
N       17.28129986      17.73881154     -15.59565284
H       17.57935043      19.59862535     -13.92917836
