13
Lattice="20.5655058 0.0 0.0 0.0 20.5655058 0.0 0.0 0.0 20.5655058" Properties=species:S:1:pos:R:3 dft_energy_ryd=-231.73140567 molecule_idx=373 crystal_idx=323 pbc="F F F"
O        9.37279063      10.26988564      -7.78949118
H        9.47278389      12.32961033      -9.19920431
H        9.59021722       8.27612519      -9.60465117
C        9.79362566      10.30160266      -8.94252989
N        9.81087968      11.49154696      -9.67177306
O       10.20054765      12.77555371     -11.54627389
C       10.23313441      11.68056592     -10.99137632
C       10.33853981       9.07935253      -9.65973807
N       10.69096817      10.52467805     -11.63123890
C       10.76726641       9.23299603     -11.10813740
H       10.98183244      10.65031037     -12.60079235
O       11.16509356       8.29398763     -11.79193919
H       11.20558023       8.71704477      -9.08611396
