58
Lattice="37.02013308 0.0 0.0 0.0 37.02013308 0.0 0.0 0.0 37.02013308" Properties=species:S:1:pos:R:3 dft_energy_ryd=-334.43091455 molecule_idx=379 crystal_idx=328 pbc="F F F"
H       15.77515016      20.88576986     -19.39491026
H       15.85461569      21.61458483     -17.01479440
H       15.90840993      18.79489566     -19.53406135
H       15.94147609      19.17939165     -17.43282996
H       16.07691948      17.11624909     -17.57542352
H       16.10793840      16.36299244     -19.94539908
H       16.27310288      14.68322098     -18.03436998
H       16.65411891      22.41805631     -19.26397366
C       16.69396222      21.34700752     -19.00461685
C       16.76143244      21.18630409     -17.47149094
C       16.85942048      19.68967567     -17.11212259
H       16.86657929      18.52570900     -20.99858842
C       16.86563372      18.40132014     -19.90146452
H       16.92963242      19.56877125     -16.01722907
C       16.97741918      16.91093890     -19.54121622
C       17.01307862      16.72819789     -18.00366446
C       17.14394941      15.23665422     -17.64439760
H       17.15303893      15.11754345     -16.54826923
H       17.55587115      14.26119669     -20.19438280
H       17.89194342      20.82222762     -20.75044811
C       17.94310406      20.71533806     -19.65188243
H       17.94515593      22.99261113     -17.17862985
C       18.00712799      21.91713017     -16.94272680
C       18.04797400      19.20307300     -19.31889647
H       18.06406745      21.81639383     -15.84632625
C       18.10354876      19.04299869     -17.76258478
C       18.21208315      17.52976208     -17.43672838
H       18.24213714      17.40882786     -16.33694198
H       18.24841728      16.43931736     -21.23384051
C       18.27208670      16.31685694     -20.13719721
C       18.40562902      14.82690602     -19.77757117
C       18.44162681      14.66484942     -18.24482139
H       18.53570297      13.59861945     -17.98457203
H       19.12077102      22.51741115     -19.38644231
C       19.20468748      21.44745238     -19.12959141
C       19.25798194      21.30367509     -17.58909039
H       19.30913247      18.72721698     -21.01288124
H       19.32926902      14.41801826     -20.22020150
C       19.35852938      18.61168477     -19.91451034
C       19.36245732      19.80064403     -17.24203532
H       19.39518534      19.68571142     -16.14290127
C       19.46495940      17.11370113     -19.57155911
C       19.52801999      16.94202418     -18.02795026
C       19.63901789      15.44801041     -17.67978311
H       19.68583149      15.33470302     -16.58298862
H       20.16253354      21.81525678     -17.21733878
H       20.40336702      16.71432132     -19.99873190
H       20.45846971      20.97527077     -20.84584795
C       20.48076942      20.85949707     -19.74956024
H       20.58332816      15.05352870     -18.09384508
C       20.58691863      19.37266864     -19.38317956
C       20.64170371      19.19472339     -17.84882780
C       20.73952014      17.70970117     -17.48404444
H       20.78573857      17.58855230     -16.38774739
H       21.36254034      21.40490091     -19.37410737
H       21.49664163      18.93460452     -19.82838342
H       21.51672908      19.74000056     -17.45560518
H       21.66111075      17.27089739     -17.90404163
