32
Lattice="35.22159396 0.0 0.0 0.0 35.22159396 0.0 0.0 0.0 35.22159396" Properties=species:S:1:pos:R:3 dft_energy_ryd=-497.38155375 molecule_idx=383 crystal_idx=331 pbc="F F F"
H       13.90437218      19.23912966     -18.04129837
N       14.90671344      19.09478032     -18.12991904
H       15.24779311      14.81718775     -19.01848524
O       15.16158797      16.00690891     -16.78023302
O       15.23564096      19.84193191     -15.97797261
H       15.25084379      18.44756515     -18.83379060
C       15.64958858      19.28438564     -16.99617154
N       16.12000044      15.23480722     -18.71117852
C       16.14502243      15.88261510     -17.51176561
H       16.54588533      17.44299433     -15.43860901
H       16.93761956      15.21051286     -19.31080019
C       17.11674508      18.80180031     -17.06549965
H       17.35584425      20.88521181     -18.56426684
C       17.38183056      17.62411505     -16.12029616
O       17.39283785      18.27456756     -18.44559737
C       17.54982137      16.45287999     -17.09713190
N       18.01828775      20.95551733     -17.79854879
C       18.05694241      20.01608537     -16.80433849
O       18.20495425      14.96436646     -15.32218084
N       18.14653101      17.06176274     -18.33037809
H       18.29879718      17.80356286     -15.54849246
C       18.35785047      15.27677953     -16.50226080
H       18.51584510      21.82753630     -17.65066945
O       18.76694644      20.11146887     -15.80378937
N       19.13235557      14.56021559     -17.38496733
H       19.49127044      15.03252984     -18.20977686
O       19.50089393      17.43265670     -17.93391281
H       19.73605684      13.85921381     -16.96105210
H       19.70570737      18.81541150     -19.50051775
C       20.20094192      17.91973466     -19.09712324
H       20.25909155      17.14014297     -19.87448042
H       21.20239630      18.17863731     -18.73151090
