19
Lattice="31.482372599999998 0.0 0.0 0.0 31.482372599999998 0.0 0.0 0.0 31.482372599999998" Properties=species:S:1:pos:R:3 dft_energy_ryd=-481.15411121 molecule_idx=387 crystal_idx=334 pbc="F F F"
O       13.10730200      14.72524222     -12.57560252
N       13.15928971      15.34451288     -13.82103745
N       14.30862798      14.15564881     -12.22977450
N       14.18425296      15.55504610     -16.67469792
C       14.38945653      15.13924452     -14.26101958
H       14.81176474      16.20297062     -18.56158884
C       14.88686755      15.64077300     -15.53887253
C       15.09099926      14.40603950     -13.25636516
N       15.03636609      16.11487846     -17.57340058
N       16.12735552      16.22080105     -15.64781594
C       16.17735433      16.50659848     -16.94604647
N       16.45820946      13.86510812     -13.31635306
O       16.38509922      17.33361435     -19.57058865
O       17.10542062      13.82434293     -12.26770266
O       16.82231492      13.48726662     -14.43926681
N       17.28663714      17.10860130     -17.52270861
N       17.32685737      17.62781882     -18.81612278
H       18.03343513      17.44890546     -16.91728165
O       18.31971356      18.30991091     -19.08107838
