21
Lattice="32.69191212 0.0 0.0 0.0 32.69191212 0.0 0.0 0.0 32.69191212" Properties=species:S:1:pos:R:3 dft_energy_ryd=-342.46747413 molecule_idx=394 crystal_idx=341 pbc="F F F"
H       13.82397623      12.96821723     -17.79192109
S       14.38485242      13.77438597     -15.53862609
C       14.38543162      13.72278752     -17.25073023
C       15.17346860      14.74984968     -17.74081785
H       15.25068335      15.09442716     -13.32187938
C       15.43064127      15.16497993     -15.44290534
S       15.56411348      15.25097375     -19.38221740
C       15.74762512      15.65571402     -14.11781482
C       15.77086954      15.56624843     -16.72816990
C       16.53668532      16.56983820     -18.74240351
C       16.53823583      16.67275980     -13.66767977
H       16.54131014      16.74437550     -12.57730650
C       16.57144944      16.62431015     -17.31248822
C       17.27551104      17.56001125     -19.36603249
C       17.35558875      17.66553436     -16.83171240
C       17.38934525      17.70008480     -14.25384799
H       17.41541829      17.74914846     -20.42473661
C       17.72382739      18.12183034     -15.50741713
H       17.87163332      18.29525646     -13.47448371
S       18.01580356      18.54946716     -18.18045221
H       18.40869950      18.97496931     -15.52152702
