12
Lattice="23.34814524 0.0 0.0 0.0 23.34814524 0.0 0.0 0.0 23.34814524" Properties=species:S:1:pos:R:3 dft_energy_ryd=-216.87827606 molecule_idx=395 crystal_idx=342 pbc="F F F"
O        9.69929839      10.12681380     -12.20050983
O       10.54004430      10.54040437     -14.24745460
C       10.53812858      10.69674640     -12.88012003
H       11.03388799      11.24211633     -10.34371238
H       11.27267335      11.05144597     -14.64568147
C       11.60741672      11.58251561     -12.33140112
C       11.73264806      11.75759226     -11.00868845
H       12.06744177      12.28858298      -8.69439826
H       12.30617474      12.09799496     -12.99638057
C       12.80196553      12.64335415     -10.45997241
O       12.80005298      12.79964734      -9.09262159
O       13.64076071      13.21327889     -11.13955229
