19
Lattice="25.482303 0.0 0.0 0.0 25.482303 0.0 0.0 0.0 25.482303" Properties=species:S:1:pos:R:3 dft_energy_ryd=-199.46008372 molecule_idx=431 crystal_idx=375 pbc="F F F"
H       10.09667486      12.13219142     -12.19806656
H       10.75979382      11.21614079     -13.57589409
C       10.96608849      11.55772525     -12.55147936
H       11.07145852      10.67165733     -11.90737730
H       11.56091549      13.45129280     -14.39412185
H       11.79465501      13.40594827     -10.63461652
C       12.22729066      12.40334701     -12.49318904
C       12.38808368      13.36237320     -13.69300586
C       12.61819778      12.84112000     -11.09431971
S       12.88253243      16.11927411     -13.62182746
H       12.81542920      11.95827645     -10.46749723
H       13.14236847      11.26364948     -14.21263077
C       13.27178793      14.53458057     -13.50861198
C       13.26709843      12.11862105     -13.54710695
H       13.51015531      13.48016449     -11.08148969
O       14.54275664      14.11815488     -13.19818143
C       14.66538796      12.65603547     -13.31764071
H       15.13609264      12.30720360     -12.38695821
H       15.33373008      12.45274145     -14.16648278
