12
Lattice="18.628157520000002 0.0 0.0 0.0 18.628157520000002 0.0 0.0 0.0 18.628157520000002" Properties=species:S:1:pos:R:3 dft_energy_ryd=-166.22549394 molecule_idx=446 crystal_idx=388 pbc="F F F"
H        7.73676328       7.34923491     -10.36326239
N        7.73741875       9.92609608     -10.62590804
O        8.25618579      11.21896061     -10.47319222
N        8.30245114       7.81330941      -9.65628278
C        8.50483923       9.16843303      -9.86028894
H        9.13646088       7.29136489      -9.40151545
N        9.34431053      11.22561567      -9.61948044
C        9.51170154       9.97738456      -9.23218538
H       10.16534661       9.05656714      -7.40724084
C       10.59147260       9.53110510      -8.30451506
H       11.24471161       8.79167006      -8.79486783
H       11.20397521      10.38589578      -7.99689789
