31
Lattice="33.32515284 0.0 0.0 0.0 33.32515284 0.0 0.0 0.0 33.32515284" Properties=species:S:1:pos:R:3 dft_energy_ryd=-371.45417806 molecule_idx=469 crystal_idx=405 pbc="F F F"
H       13.34934572      14.74991418     -18.08641257
H       13.46421709      13.39443512     -16.93030524
H       13.49995093      15.62686415     -15.74083785
C       14.00028375      14.25529090     -17.35388894
C       14.38670670      15.21917996     -16.24435827
O       14.43186789      17.79443964     -15.24346056
O       14.87619685      18.91466206     -18.27347939
H       14.86498864      13.78099992     -14.71832548
H       14.89799367      13.88536829     -17.86879704
C       14.98539549      17.55367579     -16.31383148
O       15.05020478      16.36110686     -16.92763050
H       15.21030030      19.66943598     -15.56273178
H       15.50760687      19.06367888     -19.01392062
C       15.34958851      14.63024736     -15.22185821
H       15.62159293      15.37888289     -14.46624615
C       15.68195106      18.67015291     -17.13898110
O       15.83293841      19.80766847     -16.31318684
H       16.25916824      14.26669773     -15.72174139
C       17.10412942      18.26985565     -17.62044088
O       17.46969077      18.46042982     -18.77809712
O       17.84002121      17.75193072     -16.62296562
H       18.69409483      15.81858766     -18.31864673
H       18.92128723      15.27509800     -16.62473191
C       19.24965650      17.39503793     -16.93216918
C       19.29471359      15.94956058     -17.40898036
H       19.57798548      18.06866074     -17.73476664
H       19.65101400      17.00038622     -14.84114463
H       19.92971380      18.69495468     -15.33861548
C       20.02453470      17.64609148     -15.64852368
H       20.33571319      15.67688053     -17.63494931
H       21.08855684      17.42123422     -15.80738440
