17
Lattice="27.966420720000002 0.0 0.0 0.0 27.966420720000002 0.0 0.0 0.0 27.966420720000002" Properties=species:S:1:pos:R:3 dft_energy_ryd=-199.40558349 molecule_idx=464 crystal_idx=403 pbc="F F F"
H       10.41863314      12.29287547     -14.78348682
O       10.47892645      13.07944684     -14.21038826
H       11.28753934      15.14393839     -12.87519679
C       11.80424902      13.44969447     -14.10637186
C       12.09746991      14.59314121     -13.35224956
H       12.60558622      11.83341851     -15.31293209
C       12.83878125      12.72655331     -14.72731781
C       13.42191079      15.00780918     -13.22800316
H       13.65170292      15.90067382     -12.64296064
C       14.15752105      13.14815177     -14.59499461
C       14.47357752      14.29685080     -13.83944159
H       14.96201719      12.59224972     -15.07573603
C       15.84182359      14.77079976     -13.65635706
H       15.99280458      15.69266780     -13.07662284
N       16.85492643      14.13524077     -14.14628260
O       18.06343027      14.79919861     -13.82225747
H       18.73257608      14.22076543     -14.23287672
