9
Lattice="16.94583072 0.0 0.0 0.0 16.94583072 0.0 0.0 0.0 16.94583072" Properties=species:S:1:pos:R:3 dft_energy_ryd=-149.08576236 molecule_idx=475 crystal_idx=409 pbc="F F F"
H        6.28065736       9.87206369      -8.88772000
O        6.46756105       8.93336286      -8.67914087
C        7.81669739       8.79660981      -8.57174333
H        8.06684812       6.59723306      -8.10444102
C        8.49500511       7.57507160      -8.28684248
N        8.63920836       9.82422879      -8.73061128
C        9.80505212       7.94839577      -8.28984754
O        9.93129711       9.27988195      -8.54999617
H       10.73399371       7.40947279      -8.13597770
