34
Lattice="33.21354456 0.0 0.0 0.0 33.21354456 0.0 0.0 0.0 33.21354456" Properties=species:S:1:pos:R:3 dft_energy_ryd=-324.54490436 molecule_idx=488 crystal_idx=420 pbc="F F F"
H       13.99092077      17.84357952     -15.95914680
H       14.37455927      13.49761045     -17.11940739
H       14.38963065      17.64890822     -19.64096450
H       14.48600164      18.82448849     -18.20381399
H       14.85533630      15.14640772     -18.82841041
C       14.91198735      17.96456520     -18.73073753
C       15.04741403      17.99718193     -15.70749554
H       15.18157528      17.86613584     -14.62726939
H       15.34198470      19.01751167     -15.98912455
C       15.45685059      13.40958566     -16.95485029
O       15.49305492      15.65291671     -16.08793120
H       15.63042359      12.99823500     -15.95080863
C       15.71230475      16.97090563     -17.99292801
C       15.80859053      15.50126014     -18.41338478
H       15.87295762      12.71266747     -17.69605523
C       15.90602692      16.99527130     -16.45482857
C       16.11428230      14.77222193     -17.08603830
O       16.36617492      17.96715910     -18.82150791
H       16.59183204      15.36790722     -19.17152288
H       17.31288244      19.67680510     -14.76579623
C       17.42088291      17.13551322     -16.09056692
O       17.54047807      16.93120302     -14.66370305
C       17.62534582      14.71658676     -16.79227718
H       17.74972050      14.30410102     -15.78036849
O       17.91994202      18.46172287     -16.37102844
H       18.11871134      14.03449593     -17.50230763
C       18.19168075      19.10243063     -15.10841820
H       18.25495428      18.11221027     -13.13087486
C       18.26300447      16.11497354     -16.86107801
H       18.33905860      16.46484327     -17.90041883
C       18.47355406      17.92052809     -14.18962777
H       19.04895239      19.77407999     -15.24881400
H       19.27728701      16.11402015     -16.43744444
H       19.51315089      17.56348068     -14.30256362
