24
Lattice="33.735071160000004 0.0 0.0 0.0 33.735071160000004 0.0 0.0 0.0 33.735071160000004" Properties=species:S:1:pos:R:3 dft_energy_ryd=-305.65708645 molecule_idx=484 crystal_idx=417 pbc="F F F"
H       14.70906525      15.26394925     -13.46351791
C       15.79063812      15.10298947     -13.32989610
H       15.88234867      17.36243888     -19.52670252
H       16.05900688      15.31823251     -12.28760129
H       15.93541403      19.22097834     -20.99102581
H       16.03635095      15.06178743     -17.51906219
H       16.01765142      14.05651446     -13.56252458
O       16.06093876      15.93430487     -17.97443282
H       16.34695813      20.12673430     -19.50228073
C       16.64179410      19.29249353     -20.15716251
N       16.64607738      18.02846108     -19.42910036
H       16.68888792      16.94107666     -14.02833640
N       16.56971623      15.94837535     -14.22439920
C       17.38996959      16.42498096     -17.75108654
C       17.03944548      15.51772266     -15.41692627
O       16.90171071      14.35143286     -15.85348478
H       17.64758666      19.50362552     -20.54251729
C       17.55781170      17.76836902     -18.46742842
O       17.54204950      17.87077960     -15.68578768
C       17.78346384      16.57299723     -16.24154762
H       18.12505875      15.73278926     -18.20343072
H       18.04413774      18.48726964     -16.26897136
O       18.49241316      18.54851809     -18.16976397
H       18.86064932      16.33232325     -16.17215732
