27
Lattice="36.683244359999996 0.0 0.0 0.0 36.683244359999996 0.0 0.0 0.0 36.683244359999996" Properties=species:S:1:pos:R:3 dft_energy_ryd=-375.71669432 molecule_idx=491 crystal_idx=422 pbc="F F F"
H       15.55950234      21.20839558      18.09696383
H       15.83818845      22.92112487      19.91759682
O       16.19281905      19.16587681      16.78966305
C       16.37026776      21.13768803      18.82229604
C       16.53651039      22.08775158      19.83389669
C       17.10855550      19.07025043      17.62531537
C       17.26469556      20.06440283      18.72165104
C       17.60192864      21.97601312      20.73870464
H       17.72634549      22.71743354      21.52854114
S       17.81985181      17.05524227      16.03406512
H       18.02297002      15.15055898      18.12969045
C       18.07597505      17.93558976      17.53780332
C       18.32983463      19.94901766      19.63416081
C       18.50289797      20.91285332      20.63651700
H       18.85081683      14.10133518      16.07182498
C       18.98155431      17.71319134      18.55881311
C       19.10074656      14.97151415      18.02459785
C       19.24748923      18.78133636      19.56799663
H       19.33951654      20.80324428      21.32626044
H       19.34578830      14.05909175      18.58584479
C       19.41316313      16.18447756      15.82160984
H       19.51052053      16.05434357      14.73507282
C       19.50311134      14.84489948      16.55466971
S       19.97547070      16.30488806      18.91896577
O       20.21589588      18.67113363      20.34047886
H       20.20911508      16.86480369      16.14969838
H       20.53718860      14.47426176      16.47802097
