28
Lattice="35.0547372 0.0 0.0 0.0 35.0547372 0.0 0.0 0.0 35.0547372" Properties=species:S:1:pos:R:3 dft_energy_ryd=-196.3496504 molecule_idx=501 crystal_idx=432 pbc="F F F"
H       12.59589111      16.31402648     -17.34699964
H       12.88279613      17.40159380     -19.58671360
C       13.56254837      16.72525402     -17.63906278
C       13.72442106      17.33235317     -18.89696551
H       14.50505883      16.23334716     -15.77148479
C       14.63807199      16.67242349     -16.76217615
C       14.95967815      17.86247047     -19.24458965
H       15.08289201      18.36262964     -20.20738807
C       15.92284054      17.16780192     -17.10100486
C       16.09065417      17.78187308     -18.39257076
H       16.56042971      17.15836827     -15.03122702
C       16.93773276      17.14876482     -16.05808199
H       17.14945787      19.27812254     -19.54378392
C       17.29995818      18.45710927     -18.83672645
C       18.28356372      17.12632704     -16.24378202
C       18.57238124      18.16639416     -18.45808530
H       18.62971224      16.02985243     -18.08361986
C       18.93297243      16.97041456     -17.60278859
H       19.14725135      17.44758304     -14.20097062
C       19.33821687      17.28895000     -15.26255362
C       19.78828012      18.91241772     -18.71757545
H       19.80662773      19.84443098     -19.28354364
C       20.46854709      17.08556599     -17.34917951
C       20.56134330      17.27316092     -15.84487710
C       20.85770784      18.33725257     -18.11592571
H       21.03972762      16.20423460     -17.68608653
H       21.50876949      17.41659687     -15.32608380
H       21.87609373      18.72430646     -18.12977843
