14
Lattice="21.32194428 0.0 0.0 0.0 21.32194428 0.0 0.0 0.0 21.32194428" Properties=species:S:1:pos:R:3 dft_energy_ryd=-190.02002954 molecule_idx=526 crystal_idx=456 pbc="F F F"
H        8.82285001       9.36149424     -10.11341319
H        9.12186512      10.34988225     -12.29468103
C        9.85232778       9.54453801     -10.46376985
N        9.78963332      10.53605439     -11.54795333
H       10.25755447       8.59457400     -10.85224965
H       10.24423935      10.87085314      -8.78112647
O       10.63967779      12.09186949     -12.98150477
C       10.71948563      11.48258698     -11.90373563
C       10.70536928      10.01006274      -9.28957600
H       10.81214184       9.19379724      -8.56380002
H       11.42188484      12.65657512     -10.25844880
C       11.80556836      11.84225284     -10.89434783
S       12.37755515      10.47260707      -9.83488320
H       12.66444730      12.22745264     -11.45511046
