10
Lattice="17.08490448 0.0 0.0 0.0 17.08490448 0.0 0.0 0.0 17.08490448" Properties=species:S:1:pos:R:3 dft_energy_ryd=-136.79995476 molecule_idx=520 crystal_idx=450 pbc="F F F"
H        8.03754763       7.11098716      -6.36075663
O        8.24108074       8.07285278      -6.36343815
N        8.39793288       7.31127737      -8.58334911
N        8.42120329       8.32223700      -7.71738372
H        8.67892548      10.44005132      -7.64346351
C        8.63904508       9.54689196      -8.25437161
C        8.61511786       7.91945456      -9.77803218
C        8.77322584       9.30982944      -9.62630418
H        8.64214241       7.31704035     -10.67980097
H        8.95607997      10.05167923     -10.39540111
