15
Lattice="25.090959599999998 0.0 0.0 0.0 25.090959599999998 0.0 0.0 0.0 25.090959599999998" Properties=species:S:1:pos:R:3 dft_energy_ryd=-311.4064861 molecule_idx=532 crystal_idx=461 pbc="F F F"
O        9.51941219      14.36077680     -12.74665797
N       10.54271696      13.82473229     -13.12940117
O       10.92860034      13.87374693     -14.63717062
H       10.99936309      13.04506806     -10.45348239
C       11.54744407      13.12867666     -12.56919347
C       11.73680498      12.76016468     -11.20155782
N       12.10512879      13.21726899     -14.80582903
C       12.46185432      12.79125268     -13.61049077
C       12.86228299      12.04609209     -10.89200382
H       13.08378004      11.72278300      -9.87723737
N       13.58491959      12.06963643     -13.24166972
C       13.79558650      11.69797836     -11.92614901
N       14.61995441      11.60532108     -14.00376139
N       14.94464538      11.01509689     -11.88352579
N       15.40979080      10.98368951     -13.16415396
