24
Lattice="40.62626064 0.0 0.0 0.0 40.62626064 0.0 0.0 0.0 40.62626064" Properties=species:S:1:pos:R:3 dft_energy_ryd=-340.62386259 molecule_idx=548 crystal_idx=475 pbc="F F F"
H       15.64657868      17.86570553     -21.93914698
C       16.73565031      17.90491613     -21.95349834
H       16.92417015      19.07056289     -20.11491108
H       16.95929471      16.75642824     -23.78456014
C       17.42689486      18.57189432     -20.94086238
C       17.46168748      17.29253164     -22.98088529
C       18.81976304      18.56628057     -21.01925099
C       18.85707942      17.36724638     -22.95026954
H       19.46021094      16.90460967     -23.73534269
O       19.52476640      19.12423276     -19.93286040
N       19.54302336      17.98950415     -21.97023698
C       20.27605216      20.24467883     -20.14274152
S       20.29989269      21.20982499     -21.46027744
O       21.00345151      20.37586735     -18.99488477
N       21.08445056      22.65629876     -18.53163098
H       21.25171039      24.66738866     -18.06178509
C       21.76104723      21.55478032     -18.82676800
C       21.81754725      23.76403375     -18.29977935
C       23.14917696      21.43766792     -18.88794542
C       23.21400989      23.78227769     -18.34594888
H       23.61056476      20.48014008     -19.12129613
H       23.75508250      24.70570533     -18.14522331
C       23.89046747      22.59351678     -18.63850191
H       24.97967381      22.56615365     -18.67363872
