80
Lattice="61.86067524 0.0 0.0 0.0 61.86067524 0.0 0.0 0.0 61.86067524" Properties=species:S:1:pos:R:3 dft_energy_ryd=-543.35160747 molecule_idx=571 crystal_idx=495 pbc="F F F"
H       28.34361187      29.46338699      43.12440716
H       28.78253358      29.66902596      40.67498435
H       29.11367801      28.94931398      45.47132324
H       29.13615377      27.47668448      44.47687022
H       29.14815459      29.97582225      38.23961663
H       29.33484932      30.15614856      35.74126949
C       29.41652739      29.30988160      43.32977920
H       29.58301709      35.31216963      31.24140530
C       29.58736405      28.47244016      44.60142471
H       29.64877903      33.88282251      33.27956974
H       29.64684319      27.66363150      41.93750351
H       29.84630294      30.31416652      43.48196380
C       29.86412678      29.51333964      40.83312545
C       29.90240871      34.27173218      31.16791276
C       29.93700024      33.48282885      32.30810129
H       29.94277433      35.56225717      28.70751030
H       30.02605225      27.89154560      39.40931780
C       30.06797242      28.67220320      42.09658744
H       30.08344176      33.00490678      24.75771212
H       30.17622214      28.09759729      36.94606211
C       30.22537412      29.74975426      38.32047262
C       30.24931253      34.51617039      28.68348704
C       30.27054757      33.76444459      29.88606046
H       30.29779646      30.51642049      40.98914932
H       30.30476717      33.11723360      22.14710253
C       30.35030824      32.13603726      32.21067720
O       30.37622747      31.36204635      33.37232868
C       30.41279223      29.91571153      35.78242441
C       30.46416309      28.89240911      39.56844234
H       30.58166305      34.51953607      26.57549819
C       30.61546674      33.92406658      27.48653602
H       30.65269005      28.32734517      44.83569410
C       30.68500526      32.39990905      29.80955905
C       30.69037388      29.06954826      37.03032982
H       30.70433007      33.32116500      19.57484401
C       30.71717480      31.60810767      30.98441791
H       30.73545466      30.72135371      38.43633394
C       30.79218719      30.02488271      33.28636413
C       30.82231061      29.28455131      34.46680481
H       30.91568909      30.89283589      35.87933541
H       30.93705026      30.95990869      25.97340926
C       31.03043153      32.56819250      27.38593704
C       31.06055224      31.82785830      28.56637644
H       31.11728859      31.13138785      23.41640989
C       31.13556511      30.24463753      30.86832661
H       31.14841214      28.53157367      42.27789860
C       31.16236855      32.78319796      24.82241157
C       31.16773825      29.45283459      32.04318337
H       31.20005635      33.52539732      17.01704645
C       31.23727895      27.92867960      34.36620677
H       31.27108107      27.33321034      35.27724421
C       31.38858133      32.96032950      22.28430020
C       31.43995027      31.93703247      26.07031702
O       31.47651568      30.49069537      28.48041424
C       31.50242909      29.71670621      29.64206641
H       31.54797889      28.73550417      39.70563980
H       31.55494883      31.33631795      20.86359363
C       31.58218956      28.08829859      31.96668014
C       31.60342591      27.33657433      33.16925439
C       31.62736649      32.10298866      23.53227085
H       31.67652295      33.75514890      24.90667910
H       31.76929935      28.84783683      37.09502892
C       31.78477123      33.18053839      19.75615615
H       31.82668759      33.96119433      22.44342317
H       31.90996468      26.29048956      33.14523293
C       31.91573906      28.36991584      29.54464083
C       31.95033406      27.58101469      30.68482910
C       31.98861783      32.33939987      21.01961781
H       32.00643666      31.53857055      18.37077705
H       32.20590313      34.18911078      19.91523920
H       32.20396456      27.96992094      28.57317287
C       32.26538161      33.38029960      17.25131824
H       32.26972100      26.54057676      30.61133760
C       32.43621520      32.54285561      18.52296370
H       32.51789319      31.69659376      26.11147326
H       32.70458429      31.87692042      23.61312547
H       32.71659193      34.37605567      17.37587204
H       32.73906755      32.90342692      16.38141912
H       33.07021152      32.18371709      21.17775891
H       33.50913098      32.38934927      18.72833442
