21
Lattice="25.11392688 0.0 0.0 0.0 25.11392688 0.0 0.0 0.0 25.11392688" Properties=species:S:1:pos:R:3 dft_energy_ryd=-278.45231178 molecule_idx=581 crystal_idx=503 pbc="F F F"
H       10.81820544      12.24997303     -13.94769564
H       10.87697808      11.80869135     -11.17068121
O       11.40430474      14.83269933     -10.83676240
H       11.42491815      10.11665538     -12.86326831
O       11.56898324      15.30976299     -13.63765454
C       11.87398498      11.93762893     -13.92249505
C       11.93486997      11.57060782     -11.35969981
H       12.07745231      11.42260932     -14.87117461
C       12.01548740      14.08349393     -11.58157653
C       12.06188605      14.31904027     -13.12330635
C       12.11515961      10.96695218     -12.75894759
H       12.24385087      10.83280397     -10.60672873
C       12.79118337      12.86348575     -11.08322020
C       12.78039959      13.22714099     -13.91584446
H       12.91992107      13.58533563     -14.94302917
H       12.93597329      12.97326194     -10.00132799
H       13.13178053      10.54884680     -12.84385436
C       14.15237706      12.71348849     -11.75724013
C       14.15104432      12.93045071     -13.30824217
O       15.17745629      12.44734930     -11.14875782
O       15.18397448      12.89991274     -13.95868361
