33
Lattice="40.364994599999996 0.0 0.0 0.0 40.364994599999996 0.0 0.0 0.0 40.364994599999996" Properties=species:S:1:pos:R:3 dft_energy_ryd=-460.90096763 molecule_idx=596 crystal_idx=517 pbc="F F F"
H       15.48513905      18.57382859     -19.26316144
C       16.54739670      18.71224838     -19.01893569
H       16.68611160      20.74372590     -19.79386405
H       16.63074872      19.02138985     -17.96845430
H       17.06330299      17.74993792     -19.14247670
H       17.06130928      19.46946714     -20.99534727
C       17.16610649      19.75672724     -19.93181340
O       18.56535050      19.84183596     -19.60329777
H       18.92259116      20.66191901     -21.50237892
H       19.22736655      21.76987703     -20.10896967
C       19.28316560      20.72924906     -20.46404582
H       20.18758621      18.15909296     -20.39641116
O       20.45987778      18.75019089     -22.34293999
H       20.50906893      23.38541095     -24.00717608
C       20.73846505      20.24274045     -20.43875875
C       20.87059967      18.79458281     -20.96784586
H       20.94936421      24.52900084     -22.68061745
N       21.08057795      22.08325938     -21.88052202
H       21.21399298      19.06337293     -22.87589823
N       21.25162324      20.41647035     -19.01772817
O       21.26068967      21.57013419     -18.51911305
C       21.32922605      23.78487783     -23.39415312
H       21.44442069      17.55587005     -16.63351991
N       21.57108679      19.29346115     -18.46170537
N       21.66373341      21.09053605     -21.29065787
H       21.90565936      18.45755643     -20.83979087
O       21.93795769      19.53280854     -17.15314665
O       22.00476563      22.70730314     -22.69325895
H       22.10489939      24.22367772     -24.03128355
C       22.29034002      18.25408085     -16.56246874
H       22.51275047      18.48382647     -15.51478212
O       22.86417796      20.72114592     -21.40797330
H       23.17531646      17.83516204     -17.06227199
