20
Lattice="34.033169519999994 0.0 0.0 0.0 34.033169519999994 0.0 0.0 0.0 34.033169519999994" Properties=species:S:1:pos:R:3 dft_energy_ryd=-381.70272905 molecule_idx=618 crystal_idx=537 pbc="F F F"
H       14.29265748      15.11114661     -13.26990631
N       14.83174988      15.97176569     -13.14291782
N       15.07568980      15.78761670     -15.48511174
O       15.12962826      15.53279648     -18.46815380
H       15.50309978      15.88512693     -12.37523108
N       15.55099359      16.19344210     -14.31084463
C       15.95119114      16.19338440     -17.82894246
C       15.97562877      16.32026104     -16.34985260
N       16.65730709      16.93144248     -14.29103830
C       16.95356375      17.02611846     -15.61212666
C       17.05695875      16.98464387     -18.42541251
N       17.28898198      17.16936393     -19.74919466
C       18.03069779      17.69594351     -17.68689908
C       18.10310493      17.75459335     -16.20560473
N       18.36619062      17.94865898     -19.73219976
N       18.86996323      18.48372129     -20.91214729
N       18.87410188      18.30797993     -18.55460509
O       18.98642334      18.32813549     -15.56485447
H       18.96443641      17.72507597     -21.59351500
H       19.78071210      18.89186341     -20.68452265
