27
Lattice="33.03060012 0.0 0.0 0.0 33.03060012 0.0 0.0 0.0 33.03060012" Properties=species:S:1:pos:R:3 dft_energy_ryd=-389.8538835 molecule_idx=622 crystal_idx=541 pbc="F F F"
H       13.88135305      16.51282118     -18.17197008
S       13.92419630      19.19007109     -17.83759997
H       14.47299171      15.96813737     -20.56531302
H       14.75714942      14.19357754     -18.68365434
H       14.77815220      17.67963615     -20.18068087
C       14.91685275      16.32438036     -18.49146505
C       15.09248403      16.65129302     -19.96701288
H       15.26973526      14.72985735     -17.05686936
C       15.33441903      18.46175402     -17.39510732
C       15.37117557      14.91958683     -18.13272741
O       15.78094442      17.23295421     -17.68833573
H       16.14304648      16.51837881     -20.26091125
H       16.42121236      14.77250291     -18.42304078
S       16.51031348      19.46847390     -16.51029387
H       16.59940035      14.77250014     -14.59757229
H       16.87756560      16.51835622     -12.75973963
O       17.23966330      17.23298010     -15.33224489
C       17.64943348      14.91958857     -14.88790638
C       17.68622515      18.46176504     -15.62548191
H       17.75088121      14.72984309     -15.96376808
C       17.92813670      16.65129008     -13.05361143
C       18.10375717      16.32438336     -14.52916470
H       18.24246102      17.67964343     -12.83995183
H       18.26348695      14.19361720     -14.33695360
H       18.54763606      15.96812545     -12.45532740
S       19.09647316      19.19003058     -15.18298507
H       19.13924244      16.51284059     -14.84869951
