36
Lattice="42.79232916 0.0 0.0 0.0 42.79232916 0.0 0.0 0.0 42.79232916" Properties=species:S:1:pos:R:3 dft_energy_ryd=-279.77582208 molecule_idx=639 crystal_idx=556 pbc="F F F"
H       17.62879425      19.29997027     -25.31440264
O       18.06009978      17.62250240     -24.24792679
C       18.42830114      18.54675848     -25.30104827
H       18.45694157      18.03308034     -26.27790534
H       18.68152328      16.87241718     -24.29231667
H       19.32790944      19.39844555     -23.05074413
N       19.69561249      20.00509003     -23.79072576
C       19.76623104      19.22187214     -25.02148560
H       20.01861686      19.89479149     -25.85916729
H       20.13466107      21.99940508     -22.04368146
H       20.54438983      20.44249293     -21.28975785
H       20.56690080      18.44424734     -24.98571776
C       20.90088298      21.19505347     -22.01255006
H       21.02893403      22.98018552     -17.80417917
C       20.99748101      20.54045659     -23.38676941
H       21.02242874      20.94641331     -19.23047488
H       21.30868657      23.17314303     -20.33828042
H       21.30655924      21.29192192     -24.13495902
H       21.79306762      19.76563202     -23.36057857
H       21.79597749      21.63713488     -16.94344160
C       21.91260680      22.31933461     -17.79861419
C       21.95298581      21.51975331     -19.10865600
C       22.15434348      22.44117719     -20.32471864
N       22.21211816      21.68083871     -21.57513362
H       22.56416513      24.79253924     -18.93999652
H       22.59556528      22.30396754     -22.29364832
H       22.78075531      20.79131215     -19.09155975
H       23.10092054      23.79944257     -16.72580490
C       23.17598545      23.17737518     -17.63028620
H       23.04548965      24.84680389     -21.25060859
C       23.40030989      24.07300100     -18.86008992
C       23.44367967      23.25902258     -20.15558926
O       23.68280880      24.10901591     -21.30726015
H       24.05083158      22.51911580     -17.49733791
H       24.32811420      24.65614102     -18.76827903
H       24.29757726      22.56240159     -20.14856075
