45
Lattice="36.72229932 0.0 0.0 0.0 36.72229932 0.0 0.0 0.0 36.72229932" Properties=species:S:1:pos:R:3 dft_energy_ryd=-439.19961573 molecule_idx=679 crystal_idx=586 pbc="F F F"
H       15.03571852      21.47843740     -16.92571564
H       15.26325873      17.80879125     -18.05119585
H       15.37037869      15.23133179     -18.75002320
H       15.80470054      22.24452272     -15.49213004
C       15.98297560      21.81789411     -16.48385882
H       16.10401419      16.23387993     -20.05041877
C       16.15723142      15.95194412     -18.98996925
O       16.15244682      15.16721857     -16.52533444
C       16.16662432      17.18731757     -18.05734199
H       16.39859600      22.58394305     -17.15377898
C       16.55850290      16.55736647     -16.71361479
H       16.63637929      17.14179167     -15.79541377
C       16.94271832      20.65724829     -16.36289572
H       17.14870697      18.45209712     -19.51251009
O       17.16560635      20.08916103     -17.59197654
C       17.43754013      17.92373285     -18.59761471
C       17.47885868      15.45184807     -17.06033665
O       17.45175714      20.26160472     -15.31990274
C       17.57506025      15.47205606     -18.59191552
H       17.91526161      14.53962724     -19.06170656
H       17.89697403      20.13220834     -20.41865887
C       18.07337488      18.92800042     -17.63548656
H       18.10059803      18.50486019     -16.62332340
H       18.31038432      15.14079733     -16.42505520
C       18.40271533      16.73980772     -18.98614200
H       18.52564033      16.72061709     -20.07652431
C       18.97906107      20.04399782     -20.31372237
H       19.37568140      18.05669712     -21.35508025
C       19.50432943      19.40152318     -17.95788632
H       19.44971395      21.51922105     -18.69797257
H       19.72704863      16.62552994     -17.29081209
O       19.73640657      20.17631125     -21.55328132
C       19.78583408      18.91164614     -20.81747409
C       19.70188392      20.51087782     -19.04654062
C       19.79938610      16.84918913     -18.37277730
H       19.90758929      19.80071055     -17.01663207
C       20.44138691      18.23598234     -18.46914502
H       20.30704615      15.02679043     -18.93533555
O       20.71599380      15.90983858     -18.98689050
C       20.96227837      18.77716712     -19.84201368
C       21.18255583      20.25652782     -19.42624523
H       21.32928175      18.19271427     -17.82192099
H       21.53352741      20.89700358     -20.24042345
H       21.83157887      18.22903436     -20.22233314
H       21.85399404      20.34173352     -18.56126968
