20
Lattice="24.44284836 0.0 0.0 0.0 24.44284836 0.0 0.0 0.0 24.44284836" Properties=species:S:1:pos:R:3 dft_energy_ryd=-236.8764992 molecule_idx=680 crystal_idx=587 pbc="F F F"
H        9.31892198      12.63789455     -11.29379578
H        9.62633054      11.83170348     -13.82107185
C       10.20500496      12.19413902     -11.74459808
C       10.35939732      11.78578972     -13.01733537
C       11.56141173      12.08654427     -11.05969580
H       11.58040607      12.10063898      -9.96567023
H       11.58870489       9.93329042     -11.55635829
C       11.81950261      11.39197619     -13.20102576
H       11.94648055      14.21714246     -11.59160612
H       12.07186676      10.76861548     -14.06410427
C       12.14492721      10.84926125     -11.78664530
H       12.27220991      13.44601257     -13.94748416
C       12.42887546      13.24145916     -11.71312174
C       12.61692758      12.75871516     -13.16698813
H       13.21853408      10.69109003     -11.60696306
C       13.82809934      13.29747592     -11.13552350
C       14.10981077      12.53696129     -13.31180532
O       14.18301667      13.62833430     -10.02770107
O       14.72937271      12.12570322     -14.26566684
O       14.76564685      12.85270054     -12.09828733
