16
Lattice="23.676408000000002 0.0 0.0 0.0 23.676408000000002 0.0 0.0 0.0 23.676408000000002" Properties=species:S:1:pos:R:3 dft_energy_ryd=-194.71352252 molecule_idx=689 crystal_idx=596 pbc="F F F"
H        9.98276653      12.33109139     -12.97927184
H        9.98829169      11.33407257     -10.68419789
H       11.07969563      13.54812384     -13.71462863
H       11.09154859      10.11716774      -9.95738936
C       11.00679054      12.52627472     -13.32576079
C       11.01423301      11.13990488     -10.34311297
H       11.26789032      11.80614859     -14.11521071
H       11.27846226      11.85799941      -9.55291961
N       11.94680492      12.42003018     -12.21148229
N       11.94927461      11.24962406     -11.46117511
C       12.87244096      13.40400921     -11.91499609
C       12.87982228      10.26990239     -11.75562791
O       12.99390127      14.45731148     -12.53816184
O       13.00579806       9.21870171     -11.12981307
H       13.49546653      13.11513277     -11.03999338
H       13.50172001      10.55941222     -12.63116578
