19
Lattice="26.45322624 0.0 0.0 0.0 26.45322624 0.0 0.0 0.0 26.45322624" Properties=species:S:1:pos:R:3 dft_energy_ryd=-365.49238594 molecule_idx=728 crystal_idx=629 pbc="F F F"
O       11.02784804      14.54741396     -12.47446010
H       11.12516187      12.26210609     -11.08880880
H       12.15309989      13.98034747     -14.95927006
C       12.21801376      12.15270440     -11.03516580
H       12.47900985      11.10018252     -10.86822723
H       12.56895601      12.75128084     -10.18049910
S       12.46670715      14.37815956     -12.63539991
H       12.71059710      15.64262925     -14.58302657
C       12.84587004      12.64611738     -12.30577734
C       12.87422747      14.57417154     -14.38308514
O       13.39936379      15.18550471     -11.85344221
C       13.61579282      11.89767075     -13.10926515
O       13.68763319      11.82068377     -15.72897854
H       13.81450357      10.84873089     -12.87170731
C       14.31873745      14.15515191     -14.63802323
S       14.45651645      12.35402813     -14.60834754
H       14.66075849      14.44323231     -15.64216726
H       15.00371308      14.55349489     -13.87857662
O       15.85721445      11.99011411     -14.43949665
