18
Lattice="26.224770600000003 0.0 0.0 0.0 26.224770600000003 0.0 0.0 0.0 26.224770600000003" Properties=species:S:1:pos:R:3 dft_energy_ryd=-288.0221109 molecule_idx=753 crystal_idx=649 pbc="F F F"
H        9.87923268      13.55398248     -14.63243310
S        9.97130618      14.93820995     -12.59815750
C       10.45446802      13.73541478     -13.73007921
C       11.32875306      14.62314672     -11.58831960
H       11.48848277      15.18830531     -10.67512416
C       11.60135978      13.07939278     -13.32927949
C       12.10879605      13.59445096     -12.07924474
S       12.24112455      11.69903016     -14.21509526
S       13.45752425      12.93450435     -11.16096448
H       13.93176785      13.25271017     -14.95321088
C       13.96138128      12.22027377     -14.57547413
H       14.25185682      11.57008799     -15.41362345
C       14.86475903      13.11431744     -12.32030766
H       14.84016144      14.13533416     -12.72804800
H       14.91758580      11.06201079     -13.01498030
C       14.97769165      12.07502227     -13.43928557
H       15.74401091      13.04073413     -11.66359044
H       15.98254816      12.18588212     -13.88559231
