13
Lattice="22.5883728 0.0 0.0 0.0 22.5883728 0.0 0.0 0.0 22.5883728" Properties=species:S:1:pos:R:3 dft_energy_ryd=-177.59441312 molecule_idx=771 crystal_idx=663 pbc="F F F"
H        9.37523160      12.97031666     -11.47287190
N       10.08920255      10.90093612     -10.14343089
C       10.35790675      12.61907658     -11.79551653
H       10.41614247       9.27744854      -8.95356140
N       10.78525584       9.83085090      -9.72008546
N       10.89657429      13.37493407     -12.69808485
C       10.84939993      11.41666651     -11.14592544
C       11.95392937       9.63087177     -10.40450546
C       12.03067517      10.64294201     -11.34275536
O       12.17244245      12.90898282     -13.10862828
H       12.42743931      13.59234539     -13.75625868
H       12.61943397       8.80470091     -10.17725533
H       12.81344381      10.81700517     -12.06819790
