29
Lattice="30.078246240000002 0.0 0.0 0.0 30.078246240000002 0.0 0.0 0.0 30.078246240000002" Properties=species:S:1:pos:R:3 dft_energy_ryd=-281.35104434 molecule_idx=770 crystal_idx=662 pbc="F F F"
O       12.37372645      14.16734921     -16.87242670
N       12.97056244      14.61638464     -15.66643109
H       13.00982777      15.31079210     -18.51747390
H       13.28090608      13.53011289     -18.64605422
C       13.33891935      14.40215617     -17.98476890
H       13.63619683      14.98114306     -12.76063246
H       13.72021472      16.91781202     -14.33093806
C       14.22057925      14.80608713     -15.88239932
H       14.36474907      16.29496526     -11.79090666
C       14.50065709      15.65625088     -12.67334737
C       14.66077399      16.47649335     -13.97954322
C       14.68876245      14.59209073     -17.29724949
H       14.84219413      16.70220501     -17.75078554
H       14.96103582      12.95612173     -11.92990746
C       15.26382364      15.48558577     -15.02846156
H       15.33304700      13.69875097     -17.35241231
H       15.38948011      17.28549350     -13.81310849
C       15.52447500      15.87276830     -17.50967975
C       15.80592889      14.83925009     -12.65581271
C       15.94226144      13.44437408     -12.06428007
C       15.94652966      14.48445037     -14.11694461
C       16.20396911      16.11200179     -16.12926584
H       16.26002136      15.78910964     -18.32056017
H       16.37526662      17.17878412     -15.93285172
N       16.41773241      13.31618314     -14.36249592
H       16.53811589      13.37812500     -11.14669377
H       16.64607083      15.49455353     -12.35958964
O       16.68764729      12.68828014     -13.11072862
H       17.17566072      15.60146095     -16.09338616
