16
Lattice="25.58147508 0.0 0.0 0.0 25.58147508 0.0 0.0 0.0 25.58147508" Properties=species:S:1:pos:R:3 dft_energy_ryd=-412.13172928 molecule_idx=772 crystal_idx=664 pbc="F F F"
H        9.56567203      10.87524164     -13.20285779
O        9.96322515      13.66275490     -12.26136759
H       10.34267066      11.92588103     -14.45426875
C       10.48878896      11.37540054     -13.51888296
S       10.88828090      12.55004639     -12.23743439
O       11.24252147      11.84420402     -11.03137526
H       11.31444725      10.65836871     -13.58806177
O       12.23593933      13.29602317     -12.91847717
O       13.35621265      12.31044381     -13.01061356
H       14.24473895      15.01153433     -13.09114045
O       14.29226622      13.31282447     -10.82475884
S       14.68096848      12.89151509     -12.14742366
C       15.09609604      14.32287843     -13.12674862
H       15.30913959      13.99000361     -14.14762061
O       15.61557813      11.81436079     -12.39385260
H       15.97986736      14.77493225     -12.66152908
