26
Lattice="36.969806160000005 0.0 0.0 0.0 36.969806160000005 0.0 0.0 0.0 36.969806160000005" Properties=species:S:1:pos:R:3 dft_energy_ryd=-459.75176426 molecule_idx=803 crystal_idx=691 pbc="F F F"
H       13.28146944      17.98047001     -18.20674798
H       13.86978026      18.87742536     -19.61701235
H       14.08299157      15.95946499     -19.26336308
C       14.15587690      18.14699179     -18.85113954
C       14.72640285      16.83247797     -19.42834362
H       14.92524955      16.90264082     -20.50686600
O       15.31432414      19.83047721     -17.43261492
C       15.25970801      18.74893302     -17.99024838
C       16.06814321      16.60986226     -18.74137015
N       16.26135131      17.75593717     -17.93840025
O       16.85297216      15.68366923     -18.83982472
O       17.41516121      17.94971989     -17.19301961
C       18.46213164      18.37244271     -18.00663539
O       18.47165749      18.51304219     -19.20042460
O       19.49059643      18.58870494     -17.09780009
O       19.96808283      21.15746623     -18.24677992
N       20.65440827      18.98244104     -17.74391588
C       20.81464742      20.28223331     -18.27364338
C       21.76799987      18.11787640     -17.81648429
O       21.79402721      16.96634026     -17.42017643
H       22.11909437      20.38402698     -19.95393309
C       22.21916852      20.29404716     -18.86315633
H       22.74978775      21.18322733     -18.50182487
C       22.87294925      18.95676584     -18.44941749
H       23.30834655      18.40290203     -19.29007440
H       23.65992844      19.08667032     -17.69303984
