42
Lattice="35.19624528 0.0 0.0 0.0 35.19624528 0.0 0.0 0.0 35.19624528" Properties=species:S:1:pos:R:3 dft_energy_ryd=-384.06855318 molecule_idx=819 crystal_idx=705 pbc="F F F"
H       14.94229134      18.94719909     -17.10734470
H       15.13258686      19.41701005     -19.44637952
H       15.46350772      18.13839342     -20.62166908
C       15.50142348      18.01996402     -17.24776466
C       15.82476221      18.60027931     -19.69178936
C       15.85058575      17.61550085     -18.54400339
H       15.85623154      17.79278317     -15.13712573
H       15.88688702      15.42497575     -20.53077201
C       16.02165462      17.36326083     -16.12748291
H       16.34027645      20.61283279     -17.72407766
C       16.48703345      16.36638829     -18.67444564
C       16.80320490      15.73793319     -20.00629850
C       16.90600595      16.28517975     -16.27385397
C       17.00830981      15.71108355     -17.55528147
H       17.14835612      20.31324011     -20.11679016
C       17.27423299      19.22781736     -19.99359947
S       17.33492044      20.91917487     -15.52210451
H       17.34857324      16.43520644     -20.66015550
C       17.36896814      20.71394729     -17.34726071
H       17.36855542      13.58245089     -17.37361012
H       17.54905411      16.35337921     -14.23461763
H       17.63800896      18.83368227     -20.95244543
H       17.81852540      21.60461363     -17.81347040
C       17.81810530      14.47312214     -17.83981161
H       17.83849998      18.75187722     -14.52690993
S       17.85214148      14.26789664     -19.66497110
C       17.91282255      15.95924912     -15.19346936
H       18.03871028      14.87382535     -15.07028060
C       18.17876052      19.47597970     -17.63178337
C       18.28106582      18.90188194     -18.91322154
C       18.38385930      19.44914943     -15.18076900
C       18.70003726      18.82067998     -16.51261473
H       18.84679651      14.57423956     -17.46300421
C       19.16541058      17.82380351     -19.05958660
H       19.30018136      19.76209816     -14.65631166
H       19.33084779      17.39428326     -20.04993955
C       19.33647906      17.57155758     -16.64306677
C       19.36230214      16.58679395     -15.49527078
C       19.68565044      17.16710608     -17.93931191
H       19.72354779      17.04868270     -14.56538897
H       20.05448670      15.77006376     -15.74067515
H       20.24478854      16.23986318     -18.07972012
