26
Lattice="36.51458832 0.0 0.0 0.0 36.51458832 0.0 0.0 0.0 36.51458832" Properties=species:S:1:pos:R:3 dft_energy_ryd=-351.71579973 molecule_idx=841 crystal_idx=727 pbc="F F F"
H       16.81185526      14.62192269     -18.05214370
H       17.56686594      22.08594727     -17.95102788
O       17.65546440      19.37550976     -14.36436254
O       17.60693115      17.17615493     -14.37275933
H       17.65059468      16.14459432     -16.51901805
N       17.69039128      18.27688169     -14.94753880
C       17.77556536      14.68474570     -18.58149953
C       17.78982161      17.05643744     -17.09132431
H       17.82742814      13.91600203     -19.35886914
C       17.83888479      18.27938209     -16.42135154
O       17.89894121      15.94288764     -19.27145818
C       17.91576124      17.06600017     -18.48667632
C       18.02522871      19.50380675     -17.06293438
C       18.07663147      18.28749771     -19.17912690
O       18.10387126      18.30804598     -20.55374583
H       18.06298861      20.41186976     -16.46922996
C       18.15942904      19.49978684     -18.45719128
O       18.38006895      20.61905024     -19.21537577
C       18.49719192      21.86024385     -18.49513760
H       18.59919400      14.54906056     -17.86258909
H       18.68090235      22.62554860     -19.25552668
H       19.32024369      18.25741026     -22.19511988
H       19.33832350      21.82220759     -17.78439826
C       19.43528048      18.15908543     -21.10945646
H       19.84305814      17.16621313     -20.86187280
H       20.09795111      18.95257567     -20.72913395
