14
Lattice="21.48229188 0.0 0.0 0.0 21.48229188 0.0 0.0 0.0 21.48229188" Properties=species:S:1:pos:R:3 dft_energy_ryd=-247.28362823 molecule_idx=860 crystal_idx=744 pbc="F F F"
H        8.59740658      10.67464769     -10.11055336
S        9.18315326       7.97514309     -11.01489699
H        9.35971364      13.01040485     -11.53671012
N        9.59074519      10.56904622     -10.29144088
C       10.03177080       9.38902080     -10.87255827
O       10.10664456      12.42708887     -11.76253947
C       10.47324186      11.68342861     -10.58744630
H       10.58505294      12.35448613      -9.72173817
N       11.32326702       9.63318518     -11.27817234
C       11.80862779      10.94750259     -10.90614427
H       11.90319267       8.88767891     -11.64688290
H       12.32762223      10.41908075      -9.08785996
H       12.33221614      11.45597685     -11.72513084
O       12.73442798      10.93039214      -9.81500888
