44
Lattice="46.16243352 0.0 0.0 0.0 46.16243352 0.0 0.0 0.0 46.16243352" Properties=species:S:1:pos:R:3 dft_energy_ryd=-458.01784729 molecule_idx=869 crystal_idx=751 pbc="F F F"
H       20.94330834      19.30497148      26.61430954
H       21.34735546      21.46338957      25.06500081
H       21.37685197      26.50680707      19.65361161
O       21.78613188      23.83057349      25.70397989
H       21.89453676      19.16504895      24.31176505
H       21.95328936      23.17781181      23.03832144
C       22.02487831      19.13114829      26.50012000
H       22.24603751      24.57948861      21.21691527
H       22.20543727      18.05011058      26.60626191
C       22.40100726      21.13390563      25.04702155
H       22.37736878      19.61644795      28.60652798
C       22.42391547      26.84569183      19.61465602
H       22.41734457      27.92893099      19.41894694
C       22.49413861      19.61515198      25.11547090
H       22.57247683      26.98150502      21.79905551
O       22.57895714      21.31240770      27.49480715
H       22.59330297      26.24279601      17.51707105
C       22.75961067      19.88418511      27.61314365
C       22.90327565      22.99604244      23.57625911
C       22.94471389      23.87303425      24.82213909
O       23.04643293      21.58216793      23.83557859
O       22.95069113      22.24521968      20.65848663
C       23.04878276      23.26857890      26.16733436
C       23.12400875      26.54660467      20.95332190
C       23.12619966      21.76640965      26.24552482
C       23.13466506      26.12480686      18.46494597
O       23.21070473      24.69986899      18.69141386
C       23.24494781      25.03907891      21.12327872
H       23.34004716      24.87889193      24.64946195
H       23.54540975      19.32535641      24.95043303
H       23.51814569      23.82529442      26.98505800
H       23.84480259      19.65612308      27.57621408
C       23.94295306      24.42598386      19.89832668
O       24.04128185      24.75862754      22.29751931
C       24.08464098      23.35817487      22.64653936
C       24.09103465      22.93659527      20.07164260
H       24.13816858      26.97966160      20.95494267
H       24.16107410      26.52787347      18.34359711
C       24.15848544      22.41052825      21.45191238
H       24.19649437      21.46988395      26.18821105
H       24.58321369      22.39378232      19.25760311
H       24.69040553      21.47507638      21.64785854
H       24.95781165      24.87376455      19.82619648
H       25.01697357      23.23351225      23.22052882
