21
Lattice="26.582245200000003 0.0 0.0 0.0 26.582245200000003 0.0 0.0 0.0 26.582245200000003" Properties=species:S:1:pos:R:3 dft_energy_ryd=-167.33633566 molecule_idx=888 crystal_idx=769 pbc="F F F"
H        9.66270731      13.70252386     -14.51158698
H        9.85494073      14.64869421     -12.20485396
C       10.62986021      13.73525925     -14.00883346
C       10.73752538      14.26445058     -12.71776748
H       11.68243784      12.78294606     -15.63777999
C       11.76632713      13.22381851     -14.64207769
C       11.98022601      14.27582325     -12.07886455
H       12.06633365      14.66430631     -11.06167555
C       13.01967646      13.24464406     -14.01304007
C       13.12756351      13.77834648     -12.71360938
H       13.91486249      11.90421678     -15.43926761
C       14.23139108      12.67432382     -14.71829603
H       14.28976539      13.77305525     -10.90508766
C       14.45777560      13.79391702     -11.99281468
H       14.73738340      13.46056619     -15.30955485
O       14.77798371      11.35194746     -12.61978715
H       14.99850734      14.73514046     -12.20566224
C       15.26782814      12.10805115     -13.76662415
C       15.37917081      12.66355321     -12.40740061
H       16.15789122      11.67498888     -14.23618020
H       16.34912258      12.62870714     -11.89851573
