26
Lattice="36.3102642 0.0 0.0 0.0 36.3102642 0.0 0.0 0.0 36.3102642" Properties=species:S:1:pos:R:3 dft_energy_ryd=-502.96175814 molecule_idx=887 crystal_idx=768 pbc="F F F"
H       13.79843725      20.65172090     -19.39701243
H       14.34565556      19.38834849     -20.56827059
C       14.66528179      20.18086119     -19.87923709
H       15.25420198      20.92128872     -20.43523186
S       15.65341604      19.48103140     -18.53664993
H       16.69869904      15.42862167     -14.55496725
S       16.72955731      16.68072548     -16.56603797
C       17.01885925      18.79504492     -19.42019523
S       17.23898291      18.92055272     -21.07646131
C       17.46375588      16.06336017     -15.02126707
H       17.72067184      16.88585357     -14.34325642
C       17.96489395      18.09542096     -18.61531889
C       18.01721847      17.82008368     -17.11831844
S       18.13382151      19.24562534     -16.01275417
H       18.35296113      15.45717815     -15.24696025
H       18.90406298      20.55038703     -17.90819369
C       19.14021798      17.46929292     -19.00399267
C       19.31907038      20.27192983     -16.93082906
H       19.48164408      21.17248064     -16.32460858
S       19.70393738      16.89580535     -17.43912143
S       19.87107882      17.27843566     -20.54447364
H       20.26800497      19.73370857     -17.05856405
H       21.02744390      15.31661404     -19.64626861
C       21.33697088      16.29029888     -20.04763274
H       21.94289178      16.83389477     -19.30996018
H       21.91981131      16.14298340     -20.96596498
