25
Lattice="31.768140600000002 0.0 0.0 0.0 31.768140600000002 0.0 0.0 0.0 31.768140600000002" Properties=species:S:1:pos:R:3 dft_energy_ryd=-340.57441449 molecule_idx=900 crystal_idx=779 pbc="F F F"
O       12.67072698      16.22668186     -15.78977763
H       13.03963984      15.48013067     -16.29761136
H       13.15554509      17.33436909     -14.15138041
H       13.42613724      15.57477508     -13.92879402
C       13.52275422      16.41910337     -14.63327129
O       14.87576296      19.02134597     -15.52675958
H       14.98830302      14.01162392     -14.22100080
C       14.94546188      16.60527414     -15.05645058
C       15.46832057      17.94197125     -15.50802609
H       15.65225838      16.47670378     -18.04137530
H       15.91154797      14.71960653     -18.03653662
C       15.92997555      15.68989461     -15.15495593
C       15.93429605      14.26251617     -14.72839335
H       16.51230597      12.58701300     -15.61206597
C       16.40270756      15.69182699     -18.19795377
H       16.77147925      14.11484990     -14.02511159
H       16.80594244      15.72711683     -19.21646035
O       16.12044778      13.42885106     -15.90556875
N       16.78169899      17.71006281     -15.88786090
C       17.18388974      16.31397969     -15.75116188
C       17.51386297      15.78713993     -17.19604373
H       17.39943255      18.44022096     -16.22880932
O       18.31892314      16.11502736     -14.93702153
O       18.68953517      15.51293528     -17.43971037
H       19.02935276      15.85728776     -15.57820686
