36
Lattice="43.225743959999996 0.0 0.0 0.0 43.225743959999996 0.0 0.0 0.0 43.225743959999996" Properties=species:S:1:pos:R:3 dft_energy_ryd=-456.89310458 molecule_idx=904 crystal_idx=783 pbc="F F F"
O       18.85355664      24.71551868     -18.78967735
H       19.47098853      21.76388743     -19.99797597
H       19.47224242      23.22004079     -21.79349312
S       20.28689185      24.90039939     -19.00759830
H       20.31235612      19.35736721     -22.25539824
H       20.30508766      20.51869077     -23.67062448
C       20.52493948      22.03671633     -19.86328691
C       20.52537526      23.41207899     -21.55217630
H       20.78575589      25.35991940     -16.75763825
C       20.86180787      23.54875275     -20.03597951
O       20.79503873      26.14867606     -19.57203852
C       20.88882221      20.07578021     -22.85189233
H       20.99476079      21.52672607     -19.01085196
H       20.86378936      23.59205158     -17.09720674
H       21.00256889      18.53934322     -25.60463194
H       20.99533842      24.15140303     -22.21332556
C       21.13926726      24.59097956     -17.45531381
C       21.39730137      22.16393957     -21.16306860
C       21.82473863      21.05807824     -22.05897530
C       22.08275485      18.63105404     -25.76671678
H       22.22668876      19.07063538     -21.00870135
H       22.21945686      24.68270587     -17.61740962
H       22.35824373      19.62996895     -26.12480455
H       22.22727376      21.69531049     -24.21117223
C       22.33322310      23.14624066     -20.37014609
O       22.42695979      17.07344204     -23.65000841
C       22.36023339      19.67328044     -23.18605069
H       22.43627652      17.86210447     -26.46439385
C       22.69666090      19.80994447     -21.66985730
C       22.69710084      21.18530415     -23.35874628
H       22.91694689      22.70334662     -19.55140073
H       22.90967562      23.86467353     -20.96663123
S       22.93510252      18.32152169     -24.21438354
H       23.74978588      20.00199595     -21.42852500
H       23.75104419      21.45815619     -23.22404813
O       24.36846782      18.50648853     -24.43237354
