26
Lattice="36.38202372 0.0 0.0 0.0 36.38202372 0.0 0.0 0.0 36.38202372" Properties=species:S:1:pos:R:3 dft_energy_ryd=-404.53103814 molecule_idx=956 crystal_idx=830 pbc="F F F"
H       14.18584597      19.18655927     -15.70196595
H       14.61187672      17.50370400     -16.18178020
C       14.99296191      18.44658775     -15.77158091
H       15.43171888      18.26278435     -14.78378851
S       16.23541427      19.16029853     -16.88578029
O       17.32834561      16.88437199     -16.02779176
C       17.45561441      17.87067417     -16.74479702
H       17.52096322      14.74548440     -20.37007206
H       17.65396951      15.68545470     -21.89984954
S       17.68618605      17.13793550     -20.02108805
C       18.02916605      15.57513038     -20.87552309
H       18.07753121      21.24016524     -19.86727227
O       18.55963060      19.36876542     -18.25292231
C       18.74059871      18.08034336     -17.59555327
C       18.78893079      16.91641987     -18.63285174
H       19.11160812      15.39931324     -20.87769361
C       19.15664057      21.15436408     -19.68837977
H       19.42968158      21.90458213     -18.93136584
O       19.47348644      15.92013885     -18.45358697
C       19.50907879      19.78248396     -19.17338210
H       19.72143015      21.34812184     -20.60539281
H       19.91408055      18.91232449     -15.99305990
H       19.94756401      17.12414541     -16.10225939
C       19.96262867      18.05610848     -16.67826858
O       20.48097672      19.11725534     -19.49162664
H       20.87813764      18.10055039     -17.27643467
