46
Lattice="42.1767108 0.0 0.0 0.0 42.1767108 0.0 0.0 0.0 42.1767108" Properties=species:S:1:pos:R:3 dft_energy_ryd=-483.11811445 molecule_idx=952 crystal_idx=826 pbc="F F F"
H       16.21916355      20.69689489     -19.92037001
H       16.60051263      22.42902904     -19.76182746
C       17.00545165      21.45069430     -20.04928670
H       17.09021846      22.32456520     -22.08826090
H       17.35829527      20.56695312     -22.05891897
C       17.52432138      21.50148848     -21.50337961
H       18.26893791      23.49515560     -17.41057059
H       18.17810238      21.42995024     -18.15607448
C       18.25610552      21.14059977     -19.20842752
H       18.50203897      20.06816342     -19.24012476
N       18.97987836      21.69871555     -21.34971426
C       19.27217055      23.74420372     -17.78096381
H       19.51955267      24.76767969     -17.47010457
S       19.34462256      23.74386198     -19.59863307
O       19.45177532      21.29965781     -23.55769685
C       19.36799105      21.89494146     -19.95781158
C       19.83748718      21.53661187     -22.39826427
H       20.01668148      23.04750507     -17.37337680
C       20.76880011      21.37976686     -19.63002083
H       20.69300826      23.18596730     -24.42914897
O       21.07053587      21.05047901     -18.46832752
C       21.31571818      21.67922366     -22.05743297
N       21.63219288      21.28026799     -20.68510491
H       21.53090173      24.76058735     -24.26069483
S       21.71586684      23.51356783     -22.25309756
H       21.79898873      19.81449231     -23.02705752
H       21.75346768      18.70935920     -20.89750457
C       21.59999174      23.68353044     -24.06069730
C       22.25698618      20.80584614     -22.89416409
H       22.31084810      18.94721294     -19.23247946
H       22.44916818      21.21816386     -23.88891019
C       22.61194443      19.03132666     -20.28393061
H       22.48905069      23.28098069     -24.56451349
C       22.90450575      20.51292605     -20.59905832
H       23.25662043      17.97074147     -22.69726119
C       23.50864188      20.73241518     -22.00711183
H       23.59125474      17.09705114     -20.33830798
H       23.53418377      20.94049092     -19.80624886
C       23.81412852      18.13729156     -20.61575239
H       23.96986951      21.73127038     -22.01637761
C       24.14677465      18.25278880     -22.10954338
C       24.55678956      19.69513351     -22.43523304
H       24.69361537      18.44546134     -20.02286930
H       24.75861395      19.81592740     -23.51150414
H       24.95337901      17.56070971     -22.39392943
H       25.50188278      19.91138565     -21.91094767
