27
Lattice="34.83353159999999 0.0 0.0 0.0 34.83353159999999 0.0 0.0 0.0 34.83353159999999" Properties=species:S:1:pos:R:3 dft_energy_ryd=-528.03735576 molecule_idx=964 crystal_idx=837 pbc="F F F"
H       14.49636833      15.48297309     -17.91080035
H       14.61425911      16.51791772     -19.35677211
O       15.09083496      15.87680367     -15.12402027
C       15.18067832      15.87447122     -18.67203755
H       15.56692846      15.03182572     -19.26264315
N       15.92135658      15.43137479     -15.92532175
O       16.16674755      14.23857828     -16.14097215
C       16.32449882      16.62709264     -18.04510917
O       16.47987707      19.10356679     -20.39738669
O       16.60976246      16.96330200     -20.92546255
C       16.69772693      16.43454637     -16.70758949
N       16.69834131      17.91272770     -20.13819245
C       17.07418562      17.59332170     -18.73291631
H       17.60687263      17.55192155     -13.94016811
H       17.69935642      15.81214524     -14.30383478
C       17.72809740      17.10539750     -16.03618813
C       18.06406568      16.80223646     -14.60012073
C       18.12492695      18.31253099     -18.15257411
C       18.42888286      18.04547836     -16.81214424
C       18.93562844      19.27308199     -18.99116035
O       18.95127980      20.52185269     -18.45068901
H       19.14668127      16.84453375     -14.43230749
O       19.37116067      19.29590591     -15.09140103
O       19.49213065      18.94438225     -20.02457163
H       19.53016242      21.07196809     -19.02342227
N       19.57253537      18.76707274     -16.19262574
O       20.63913196      18.77546892     -16.82204676
