16
Lattice="23.64428556 0.0 0.0 0.0 23.64428556 0.0 0.0 0.0 23.64428556" Properties=species:S:1:pos:R:3 dft_energy_ryd=-221.77826737 molecule_idx=976 crystal_idx=847 pbc="F F F"
H        8.69461365      13.49009672     -12.90663558
H        9.06303166      12.90321894     -11.29899454
N        9.37911451      13.20384548     -12.21404363
C       10.69631251      13.15089816     -12.57524851
O       11.10161394      13.46896664     -13.70559569
H       11.30159427      12.64729612     -10.46262612
C       11.63954609      12.67191942     -11.50265063
H       12.52625400      11.28074600     -12.97741384
C       12.60338323      11.59319896     -11.93085185
O       13.05141366      10.78538379      -9.69658097
C       12.98219139      10.54945030     -10.90714976
H       13.20579798       9.13702789     -12.43696940
N       13.06788927      12.97448105     -11.67725960
N       13.19231656       9.29919691     -11.43635149
H       13.15169556      13.42639470     -12.60201622
H       13.48148100       8.55612820     -10.80786146
