13
Lattice="22.7479266 0.0 0.0 0.0 22.7479266 0.0 0.0 0.0 22.7479266" Properties=species:S:1:pos:R:3 dft_energy_ryd=-234.92124483 molecule_idx=981 crystal_idx=851 pbc="F F F"
O       10.03456085      10.61183860     -10.01774821
H       10.18943034      12.35401709     -13.16236010
H       10.53547704      11.71458710      -8.01024235
C       10.87785196      11.51650941     -13.17276722
C       10.94108095      11.40364070      -9.84020263
N       11.02274507      10.61637810     -14.13675764
O       11.20461768      12.03397426      -8.65386917
N       11.74822611      11.23309088     -12.17278869
H       11.88690515      12.95856563     -10.99177732
C       11.95386464      11.86692578     -10.88831012
N       12.00294482       9.76263255     -13.69692544
N       12.44435594      10.11419305     -12.52278117
H       12.96718702      11.62289447     -10.54271743
