21
Lattice="34.507438560000004 0.0 0.0 0.0 34.507438560000004 0.0 0.0 0.0 34.507438560000004" Properties=species:S:1:pos:R:3 dft_energy_ryd=-275.270841 molecule_idx=988 crystal_idx=856 pbc="F F F"
H       15.14508910      14.43417419     -18.77456549
H       15.20587962      15.47995793     -21.05316508
C       15.65866460      15.37824024     -18.95245990
C       15.69916407      15.97215439     -20.21554467
C       16.30751786      16.05246088     -17.90735979
H       16.36757374      17.62059081     -21.44571360
C       16.36407904      17.19746553     -20.44164519
N       16.44691199      15.73971001     -16.55666480
C       16.95741333      17.27672952     -18.16243230
C       17.01616413      17.88306549     -19.40978077
H       17.05785162      16.12677952     -14.03392621
C       17.14887738      16.73486602     -16.05735998
C       17.51522071      16.88469362     -14.67052735
H       17.53301072      18.82729563     -19.57198010
O       17.49749100      17.72691614     -16.97480828
C       18.26406224      17.85002254     -14.09581238
H       18.33477704      17.87624377     -13.00754840
O       18.73679709      20.16793619     -14.45060851
C       18.94086204      18.99845565     -14.75749762
O       19.86475200      18.61898161     -15.69308424
H       20.23465891      19.45007845     -16.06433360
