21
Lattice="30.32887536 0.0 0.0 0.0 30.32887536 0.0 0.0 0.0 30.32887536" Properties=species:S:1:pos:R:3 dft_energy_ryd=-261.79910332 molecule_idx=1002 crystal_idx=869 pbc="F F F"
H       12.66785501      16.74589766     -16.83199579
H       13.03673892      16.70625954     -11.78257332
H       13.48101221      18.19214837     -16.22035441
N       13.78438847      16.03934002     -11.92957210
H       14.16791660      15.50309820     -11.16083670
C       13.64697925      17.15489697     -16.53901890
N       13.70424712      16.59121144     -14.17763829
H       14.31611338      17.12024018     -17.40567242
C       14.27109233      15.85675171     -13.18410887
C       14.21055269      16.35277621     -15.39891045
N       15.27545509      14.96347500     -13.33344364
H       15.45922964      13.14270578     -17.08921115
N       15.18498752      15.45915136     -15.68879025
H       16.58452077      14.38669421     -17.60567715
C       15.67347611      14.80792420     -14.61154276
C       16.52816603      13.36277342     -17.21605284
H       16.99424083      12.65309654     -17.90755120
N       16.71869402      13.90539231     -14.77086731
C       17.25032498      13.25246524     -15.89732644
H       17.16282420      13.62022065     -13.89690012
O       18.26526878      12.56756480     -15.73603960
