58
Lattice="44.53080408 0.0 0.0 0.0 44.53080408 0.0 0.0 0.0 44.53080408" Properties=species:S:1:pos:R:3 dft_energy_ryd=-327.07961244 molecule_idx=1017 crystal_idx=880 pbc="F F F"
H       17.82653992      25.10110763     -24.53923636
H       18.66897466      26.13725266     -25.71547366
C       18.73601474      25.69903603     -24.70896228
H       18.74623890      26.51929705     -23.97595234
H       19.02472758      23.13094135     -25.52825630
H       19.18278781      23.67761236     -22.88091853
C       19.97102045      23.69181030     -25.62933572
C       19.97868118      24.81467642     -24.56814707
H       19.96351431      24.14727850     -26.63185992
C       20.09113500      24.25012486     -23.13482109
H       20.13637348      21.75225218     -23.87308386
H       20.17144466      25.08149972     -22.41648993
H       20.16317816      22.70831265     -19.56038569
H       20.21566719      24.36824814     -20.21117679
H       20.63628864      19.82597222     -22.70886807
C       20.80929093      23.58098134     -19.72463306
H       20.87631251      25.43450184     -24.74487688
H       21.03055574      19.45940134     -24.40697971
H       21.03704747      21.88487678     -26.22743836
C       21.14017642      22.17060461     -24.06189838
C       21.14612751      22.69883101     -25.49359667
H       21.15913500      23.96020172     -18.75246767
C       21.29916674      23.32912355     -23.06880398
C       21.45790665      19.74467242     -23.43463849
N       21.50901710      22.56236198     -21.84745028
H       21.80704661      20.29585140     -20.90435149
C       22.00725630      23.18271274     -20.59197789
H       22.10083008      23.20562875     -25.70827696
H       22.14307141      18.94848048     -23.11146504
C       22.17279981      21.09723189     -23.57274258
H       22.20990903      23.90528714     -23.34106317
H       22.21548464      21.60128039     -19.08243970
H       22.25497919      25.22280036     -21.28059135
N       22.62525731      21.68409634     -22.25931144
C       22.74906227      20.85986940     -21.04979110
C       22.79124597      21.96728126     -19.94641270
C       22.88071010      24.41688537     -20.87001206
H       23.07962054      20.62698156     -25.49054669
H       23.35176610      24.78616897     -19.94956654
C       23.38944314      20.97216514     -24.49285376
H       23.59759107      18.99817212     -20.41465134
H       23.66827446      24.17571669     -21.59694496
H       23.89805594      21.94062513     -24.58825160
C       23.90241436      19.84204872     -21.05796971
H       24.00932393      19.42710539     -22.07118576
H       24.10664683      20.24601583     -24.08466165
H       24.12300644      22.92820720     -18.53615996
C       24.20202612      22.31722949     -19.44908459
H       24.56622180      20.38260644     -18.49631597
H       24.72269843      22.92873877     -20.19976926
C       25.05592198      21.06941004     -19.21106453
C       25.26277235      20.33778728     -20.54432692
H       25.67266062      21.06727708     -21.26450198
H       25.87218561      18.45235848     -19.65437547
H       26.02584693      21.35037284     -18.77181429
C       26.24252380      19.16876281     -20.40550485
H       26.36410443      18.62678529     -21.35542712
H       27.23431029      19.51947099     -20.08322690
