26
Lattice="26.355430079999998 0.0 0.0 0.0 26.355430079999998 0.0 0.0 0.0 26.355430079999998" Properties=species:S:1:pos:R:3 dft_energy_ryd=-238.45169725 molecule_idx=1030 crystal_idx=892 pbc="F F F"
O       10.71627089      13.04349684     -14.80291298
H       10.75102489      13.45137770     -11.38747113
H       11.04513140      11.80266036     -12.02573536
C       11.51596132      12.76015946     -11.76496954
C       11.84999005      13.21141809     -14.37187265
H       11.92406664      15.49097697     -13.17158330
C       12.30737778      13.32427478     -12.92435503
C       12.71094230      14.83475905     -12.77565412
S       12.78826194      12.49512389     -10.43746561
H       12.82610799      15.05286187     -11.70525753
H       13.07008634      14.21256492     -15.89910505
H       13.04644120      10.92784814     -14.26806163
C       13.14501655      13.36161788     -15.20681169
H       13.18875777      10.55138570     -12.53537189
H       13.27835858      12.45660973     -15.81518766
C       13.63456035      11.12332530     -13.36209527
C       13.69720026      12.61343110     -12.98933458
H       14.02961542      15.70969576     -14.34355405
C       14.06335321      14.95741470     -13.54425885
C       14.24616021      13.53656013     -14.12264111
C       14.25329841      12.72981118     -11.55984347
H       14.65532812      10.74617199     -13.52518707
H       14.70948754      13.70560257     -11.35548239
H       14.88409969      15.23170354     -12.86853487
H       14.98039753      11.93797559     -11.33625871
H       15.25938981      13.30785902     -14.47768045
