31
Lattice="32.25055932 0.0 0.0 0.0 32.25055932 0.0 0.0 0.0 32.25055932" Properties=species:S:1:pos:R:3 dft_energy_ryd=-396.10902286 molecule_idx=1042 crystal_idx=900 pbc="F F F"
H       14.21807028      14.21899445     -16.67215379
H       14.45601872      16.35764767     -15.72360124
H       14.45887185      18.72599059     -14.33336371
O       14.96342073      16.44989889     -17.77956945
H       14.75490558      14.04891488     -14.94374815
C       14.93299850      13.75156785     -15.98704235
H       14.93372110      12.66271428     -16.11856106
H       14.32375551      17.15072863     -18.00996350
C       15.16279922      18.91404528     -15.13409065
C       15.30488989      16.63932524     -16.36700111
C       15.63117177      18.06886195     -16.09595505
O       15.76515336      15.43254646     -13.70536573
H       15.72055118      20.95414151     -14.72915720
H       15.87675380      14.61018093     -18.38177437
N       15.82892723      20.12035514     -15.29533184
N       16.31125779      14.25269058     -16.33534263
C       16.49364024      15.75591582     -15.97876437
N       16.58120675      18.78667767     -16.82662858
H       16.45751116      12.94181646     -17.99380277
C       16.58083774      14.01434464     -17.79774574
C       16.71362852      15.92068905     -14.39907187
C       16.72135722      20.08035664     -16.35779485
H       17.10226195      18.45422536     -17.62992178
H       17.05605496      13.50716635     -14.48845524
H       17.40823174      16.05099772     -16.50932940
H       17.31384762      12.42999631     -15.92081780
C       17.32922677      13.46077641     -15.54701107
H       17.61092337      14.32278684     -18.00861709
O       17.77666342      16.49947510     -14.08444557
S       17.69748875      21.29478188     -16.94141106
H       18.31190307      13.91943896     -15.70221081
