31
Lattice="39.65618412 0.0 0.0 0.0 39.65618412 0.0 0.0 0.0 39.65618412" Properties=species:S:1:pos:R:3 dft_energy_ryd=-419.84543389 molecule_idx=1054 crystal_idx=908 pbc="F F F"
H       15.68882935      16.89428606     -20.17748898
N       16.42214258      17.54867728     -20.41738341
S       16.67275233      18.10368999     -17.76931872
H       16.87439622      17.51384894     -21.33637583
C       17.17967164      18.14035796     -19.44816683
H       17.88880529      18.82290343     -15.24522837
C       18.03261390      19.10102162     -17.28307323
N       18.18675244      19.46968693     -15.97014688
C       18.31689190      18.92277080     -19.62926960
O       18.37866187      18.59036646     -21.99868564
C       18.70407118      19.25840999     -20.99577461
C       18.84401912      19.43021482     -18.36404073
H       19.00530408      20.78247500     -23.12645803
H       19.06860346      19.97724075     -15.81804363
O       19.39700931      20.43033636     -21.10193275
C       19.86772647      20.75143869     -22.44526422
H       19.90189843      22.88225558     -22.04283598
C       20.16688154      19.97976499     -18.08284594
O       20.48317081      20.54879211     -17.01810309
H       20.53063097      19.93931803     -22.78124520
C       20.58776458      22.08525928     -22.36012496
H       20.99375878      22.34791805     -23.34716614
O       21.07224731      19.73647769     -19.07482096
H       21.42073367      22.03929922     -21.64478009
H       22.23358617      21.45775405     -18.88068846
C       22.37767435      20.36683984     -18.91761397
H       22.73546335      20.25354458     -21.05061113
H       22.82087104      20.05367190     -17.96168904
C       23.20967068      19.93536741     -20.11211846
H       23.31812831      18.84259927     -20.13330391
H       24.21090128      20.38504524     -20.05703368
