10
Lattice="15.45518016 0.0 0.0 0.0 15.45518016 0.0 0.0 0.0 15.45518016" Properties=species:S:1:pos:R:3 dft_energy_ryd=-106.64455317 molecule_idx=1051 crystal_idx=907 pbc="F F F"
H        5.98942750       9.34606157      -7.20760422
C        6.76608079       8.61072283      -7.43553154
H        7.47146774       5.48056025      -6.82915099
N        6.60467005       7.37390207      -6.92825206
C        7.57714799       6.49263755      -7.22901187
C        7.87255836       8.95706694      -8.22069716
N        8.84503414       8.07580323      -8.52145991
H        7.97823957       9.96914799      -8.62055504
C        8.68362356       6.83898368      -8.01417586
H        9.46028369       6.10364728      -8.24209475
