19
Lattice="28.86743664 0.0 0.0 0.0 28.86743664 0.0 0.0 0.0 28.86743664" Properties=species:S:1:pos:R:3 dft_energy_ryd=-447.45839215 molecule_idx=1056 crystal_idx=909 pbc="F F F"
O       10.69068794      14.78996216     -14.64150810
O       11.49720893      14.99458278     -16.68398203
N       11.61995803      14.82562576     -15.46191246
H       12.32425455      14.32692831     -12.90342597
C       12.99600115      14.64408656     -14.93626222
C       13.18021914      14.39344229     -13.57319239
O       13.72899406      13.29900505     -11.08489826
H       13.90879577      14.88288386     -16.87731649
C       14.06639428      14.70295880     -15.81614341
C       14.46480434      14.22495966     -13.08379063
N       14.60901215      13.98920349     -11.62046416
C       15.35422279      14.51159849     -15.31686395
C       15.60828966      14.26733535     -13.92905520
O       15.56672767      14.52251559     -11.05053856
O       16.23416147      14.79627723     -17.45646180
N       16.46510401      14.55705280     -16.27242125
O       16.82498613      14.04615424     -13.44073943
H       17.44447170      14.09783394     -14.24305163
O       17.63289786      14.34478526     -15.82516383
