8
Lattice="17.197888680000002 0.0 0.0 0.0 17.197888680000002 0.0 0.0 0.0 17.197888680000002" Properties=species:S:1:pos:R:3 dft_energy_ryd=-235.3070147 molecule_idx=1074 crystal_idx=925 pbc="F F F"
S        7.08772885       8.59636890     -11.40568070
C        7.86602116       8.59635460      -9.95571548
S        8.33771180      10.04899363      -9.07525226
S        8.33774733       7.14372798      -9.07528504
C        9.07386200       9.27330870      -7.70901554
C        9.07387994       7.91941424      -7.70903748
H        9.49693548       9.89388246      -6.92042083
H        9.49697904       7.29881512      -6.92045824
