10
Lattice="18.59333616 0.0 0.0 0.0 18.59333616 0.0 0.0 0.0 18.59333616" Properties=species:S:1:pos:R:3 dft_energy_ryd=-168.20611081 molecule_idx=1083 crystal_idx=933 pbc="F F F"
H        7.81322056      10.08556805      -7.97237041
H        8.40861078       8.05598646      -9.96125943
N        8.49059572       9.32100751      -8.06079458
H        8.70968755       8.95556228      -7.13077247
N        9.15096576       8.46453609     -10.52465765
H        9.35925177       8.13522256     -11.45837325
N        9.67184875       9.77068713      -8.68923729
C        9.95313672       9.42147832      -9.99391323
H       10.17266593      10.59186209      -8.34916675
S       11.22085570      10.14892870     -10.81029414
