35
Lattice="40.2207876 0.0 0.0 0.0 40.2207876 0.0 0.0 0.0 40.2207876" Properties=species:S:1:pos:R:3 dft_energy_ryd=-303.48017188 molecule_idx=1090 crystal_idx=940 pbc="F F F"
H       15.37966224      19.62649112     -19.68288101
H       15.62567275      19.94297065     -21.76203481
C       16.42559971      19.63950809     -19.35354925
H       16.50978324      20.36607185     -18.52953624
H       16.68419496      18.63850089     -18.95519544
C       16.71885183      19.86755133     -21.81623002
H       16.98448895      18.89557394     -22.27786699
H       17.07822171      20.67086148     -22.47643970
N       17.26746295      20.02768201     -20.47702587
H       18.55143643      19.98920876     -18.14849335
C       18.65045573      20.09370219     -20.30501819
H       19.13717050      20.16435688     -22.43342843
C       19.20643910      20.09796111     -19.00524981
H       19.39694559      20.65878053     -16.32426586
C       19.51959075      20.17894200     -21.41643371
H       19.86072720      18.94120022     -16.46108611
C       20.25574288      19.97293306     -16.38641851
C       20.59518017      20.25570376     -18.80174067
H       20.72269935      18.98232597     -23.78961903
H       20.82637787      20.06037322     -15.45533979
C       20.90453636      20.29222047     -21.22186991
N       21.11433398      20.32474079     -17.50781998
C       21.44413653      20.34464120     -19.92901373
C       21.56467772      19.63208131     -23.56970679
C       21.80985314      20.31494468     -22.38992759
H       22.52263437      20.40408267     -19.81391197
C       22.55328827      20.20260354     -17.31552379
H       22.78080603      20.31198320     -16.24864472
S       22.82227468      19.84879322     -24.72040653
H       22.95025291      19.22961902     -17.66378123
C       23.05864639      21.01805301     -22.44966864
H       23.08490943      20.99862012     -17.85720272
H       23.43284851      21.63959560     -21.63774829
C       23.71159469      20.86449012     -23.65000271
H       24.65135866      21.30568761     -23.96977423
