22
Lattice="39.541083119999996 0.0 0.0 0.0 39.541083119999996 0.0 0.0 0.0 39.541083119999996" Properties=species:S:1:pos:R:3 dft_energy_ryd=-498.17335065 molecule_idx=1095 crystal_idx=945 pbc="F F F"
H       16.85793776      15.68225905     -17.32174623
S       17.73123998      16.94352424     -19.90637788
H       17.85064324      17.10865726     -16.89945348
C       17.88592464      16.06490636     -17.23844939
S       18.24296225      20.01315807     -20.05637880
H       18.43149575      15.46765084     -16.49291450
C       18.58960489      15.96992679     -18.58805989
H       18.63802732      14.93502402     -18.95386027
C       18.68578477      18.37964219     -19.58286515
S       19.40576621      22.79369476     -21.39803715
C       19.87021314      18.21303777     -18.94097897
C       19.88715582      20.62675730     -19.78461117
S       20.33521944      16.57605521     -18.51155224
C       20.37757183      21.75428979     -20.36667829
H       20.55888193      24.27818575     -22.88989388
S       20.82514199      19.65601092     -18.63163308
C       20.86478541      23.38202193     -22.33292618
H       21.19488064      22.60271206     -23.03332231
H       21.71852969      24.62954590     -20.76665755
C       21.94873436      23.70041678     -21.30529444
S       22.03884169      22.31876393     -20.09849426
H       22.93806193      23.78116369     -21.77721964
