24
Lattice="31.58286768 0.0 0.0 0.0 31.58286768 0.0 0.0 0.0 31.58286768" Properties=species:S:1:pos:R:3 dft_energy_ryd=-548.15628302 molecule_idx=1102 crystal_idx=952 pbc="F F F"
N       13.23132037      17.38543929     -12.72895887
N       13.36628368      17.44188898     -14.02565050
N       13.57565461      17.41878786     -18.88955425
N       13.66713679      17.36047483     -17.57700862
N       14.25657573      16.62482838     -12.27222833
H       14.36414387      16.41627263     -11.28044585
N       14.45826067      16.73061415     -14.43257374
N       14.58566611      16.74136405     -19.47846196
N       14.76221036      16.62977214     -17.30219658
H       15.00047960      16.45977070     -16.30768492
C       15.00729622      16.22272232     -13.32765787
C       15.33054271      16.24435852     -18.47517302
C       16.19116072      15.39575592     -13.25696144
C       16.52390972      15.44217076     -18.68831332
N       16.68307094      14.98754618     -12.09912541
N       16.77278673      15.13316333     -15.69005135
N       16.93242877      15.24554286     -19.93596371
C       17.00581455      14.88326020     -14.32272180
C       17.43759254      14.72978810     -17.80777842
N       17.59590959      14.52117320     -16.44581614
O       17.79569201      14.22802597     -12.43614579
N       17.99079436      14.16456997     -13.78951141
O       18.06389329      14.43350692     -19.83379020
N       18.36306926      14.12089593     -18.55791952
