40
Lattice="47.6642502 0.0 0.0 0.0 47.6642502 0.0 0.0 0.0 47.6642502" Properties=species:S:1:pos:R:3 dft_energy_ryd=-359.57657927 molecule_idx=1125 crystal_idx=970 pbc="F F F"
H       18.43254336      20.19123913      26.56167996
H       18.57901376      22.02043868      28.25700253
C       19.20964089      20.95066513      26.48113841
C       19.29758203      21.97346465      27.43901821
H       20.06121460      20.15818616      24.64623201
C       20.10840203      20.92282599      25.42123899
C       20.29216174      22.95045334      27.34809064
H       20.31889019      23.74736896      28.08876747
C       21.11949813      21.90023340      25.29294663
C       21.22175130      22.91800763      26.29204277
H       21.93726297      25.73804787      27.11019270
N       21.95606292      21.83774240      24.20224548
N       22.25593183      23.85453273      26.16289986
H       22.26042411      24.35320362      28.20121509
C       22.51587441      24.80974215      27.23928275
C       22.85586683      22.80816854      24.04990342
C       23.03549805      23.89745704      25.01206752
H       23.58435292      25.05208282      27.25004019
H       23.54701303      21.93444368      22.23309987
C       23.69465396      22.78370903      22.89551533
C       23.97069872      24.88456452      24.76129024
H       24.11959709      25.73686402      25.41985405
H       24.06606944      22.67451638      20.36337213
C       24.63222917      23.76923411      22.64803192
C       24.81318587      24.85606625      23.60960596
C       25.15149742      22.80562763      20.46110264
N       25.41453954      23.80128430      21.49931269
H       25.54086743      23.15184067      19.50117727
H       25.60282575      21.83313649      20.71424708
N       25.72201155      25.81828482      23.46017737
C       26.43896529      24.74791216      21.35538542
C       26.55089709      25.75816911      22.36346279
H       27.31724592      23.96377498      19.52177393
C       27.35080342      24.74063384      20.28257583
C       27.56353003      26.73520829      22.23859388
H       27.62289864      27.48567375      23.02669677
C       28.33836742      25.72398374      20.18972273
C       28.44533965      26.72754979      21.16514095
H       29.03708106      25.69825524      19.35370942
H       29.22083850      27.48853496      21.08327521
