24
Lattice="42.244713 0.0 0.0 0.0 42.244713 0.0 0.0 0.0 42.244713" Properties=species:S:1:pos:R:3 dft_energy_ryd=-319.31201329 molecule_idx=1132 crystal_idx=977 pbc="F F F"
H       17.83069958      18.38036214     -22.47737735
O       18.69245088      20.03741634     -20.75668705
C       18.70596474      18.44497332     -23.12632465
N       18.73789573      17.68596946     -24.23578146
C       19.65445702      20.13485393     -21.52467003
C       19.75958021      19.31052437     -22.78556536
C       19.84554164      17.79588114     -24.99414257
H       19.88752787      17.18671940     -25.90076878
N       20.74194403      20.97281815     -21.35345693
N       20.88842715      21.73614313     -20.24362447
N       20.86803941      19.41418922     -23.54997589
C       20.90492254      18.64664416     -24.65208199
H       21.47792161      20.91667691     -22.07219976
O       21.43938430      23.33640082     -17.98877374
H       21.46640069      24.30941706     -16.14742181
C       21.99316436      22.42013177     -20.17699040
H       21.80074415      18.71159146     -25.27475064
C       22.04481000      24.13153080     -17.04688732
C       22.32742300      23.23133349     -19.04368008
H       22.75214597      22.39370444     -20.97751616
C       23.28498485      24.53269040     -17.47073335
C       23.47043711      23.95607146     -18.76247396
H       23.98100080      25.15872869     -16.92247050
H       24.33738760      24.04848323     -19.40890082
