11
Lattice="19.525839480000002 0.0 0.0 0.0 19.525839480000002 0.0 0.0 0.0 19.525839480000002" Properties=species:S:1:pos:R:3 dft_energy_ryd=-176.20883948 molecule_idx=1144 crystal_idx=986 pbc="F F F"
H        7.84257279       9.40856669      -9.89096380
H        8.44397273      10.25168089     -11.36413526
C        8.73066380       9.80129606     -10.40823973
H        8.95218328      11.21155015      -8.73265544
C        9.56399194      10.72263686      -9.50273331
O        9.61875368       8.67317631     -10.69846614
H       10.10832974      11.49021964     -10.08047726
N       10.47312645       9.72904292      -8.93031780
C       10.61833355       8.63965297      -9.75288148
H       11.24999862       9.97437735      -8.32520386
S       11.76223798       7.46196470      -9.67809058
