26
Lattice="34.6419612 0.0 0.0 0.0 34.6419612 0.0 0.0 0.0 34.6419612" Properties=species:S:1:pos:R:3 dft_energy_ryd=-375.41386491 molecule_idx=1160 crystal_idx=1001 pbc="F F F"
O       15.79298555      16.95186430     -20.73503503
O       15.91846640      19.14567170     -20.90973564
N       16.08702344      18.08145712     -20.29047127
H       16.32788620      15.05782247     -19.29245040
H       16.35615417      13.15354317     -16.50013283
C       16.66962335      18.13288546     -18.94117480
C       16.73391680      15.58364139     -18.43970780
H       16.78629886      20.26434046     -18.96493324
C       16.91182343      16.94211947     -18.20327478
H       16.98427382      13.00415459     -18.16805489
C       16.97986795      19.35748370     -18.39785101
C       17.16123589      13.45298793     -17.18458791
N       17.19433994      14.90843879     -17.32728312
O       17.35336245      21.77181332     -17.29644719
C       17.49899194      17.07709903     -16.87666431
C       17.54860475      19.45344309     -17.10147609
C       17.65273559      15.77106929     -16.37430763
H       17.77943462      19.00311616     -14.24854005
N       17.82350156      20.83066894     -16.63302364
C       17.82451853      18.33344497     -16.29772839
H       18.06021364      15.40309578     -15.44092197
H       18.12111071      13.09576035     -16.79186181
C       18.39259094      18.37008697     -14.90563187
H       18.44097933      17.36012508     -14.48307194
O       18.51218585      20.98181297     -15.60544746
H       19.39458122      18.81876048     -14.89689196
