38
Lattice="39.31368588 0.0 0.0 0.0 39.31368588 0.0 0.0 0.0 39.31368588" Properties=species:S:1:pos:R:3 dft_energy_ryd=-379.85767652 molecule_idx=1183 crystal_idx=1022 pbc="F F F"
H       16.52366312      21.41459338     -20.46654361
H       17.10231257      18.24496473     -16.68750333
C       17.58237707      21.40768901     -20.17995240
H       17.68597130      21.61158438     -19.10351420
O       18.06202835      20.08206274     -20.50124087
C       18.17076709      18.45280011     -16.53043029
O       18.12150283      16.51930900     -18.40105524
H       18.13183497      22.17762192     -20.74256620
H       18.28003273      19.32544698     -15.87397755
H       18.32478823      21.09271576     -22.87277328
H       18.58018205      17.56281354     -16.03130312
C       18.75239653      17.51860216     -18.79455950
C       18.85644591      18.68817761     -17.85598348
H       18.78990900      15.46800308     -20.68226638
H       19.19765430      19.56666539     -23.19537274
C       19.32081126      20.62513623     -22.91292336
C       19.44791269      17.43208673     -20.11613233
C       19.48023133      19.94760998     -20.60748955
C       19.51306927      19.84782379     -18.06232533
H       19.53408361      20.56402718     -17.23774083
C       19.74900794      18.48528581     -20.89304773
C       19.73282575      16.02277814     -20.57635204
H       19.94680767      21.13376362     -23.65578130
O       20.01063488      20.76673911     -21.65531856
H       20.26552101      18.30124728     -21.83686543
C       20.23435617      20.37725217     -19.29040495
O       20.24833597      21.79310822     -19.04712667
H       20.33000881      15.47750559     -19.82990702
H       20.26626731      16.02231327     -21.53554185
H       20.50559495      23.01636664     -20.73817972
C       21.08102899      22.62549274     -19.88789492
H       21.41683917      23.45012677     -19.24440083
O       21.56200904      19.86353903     -19.44013266
H       21.94475138      22.06690138     -20.27062656
H       21.99458550      19.30725585     -17.45748030
C       22.37193526      19.97089254     -18.25164109
H       22.39775284      21.00801666     -17.88135870
H       23.37923553      19.65715375     -18.54775853
