20
Lattice="29.17738908 0.0 0.0 0.0 29.17738908 0.0 0.0 0.0 29.17738908" Properties=species:S:1:pos:R:3 dft_energy_ryd=-354.54774577 molecule_idx=1184 crystal_idx=1023 pbc="F F F"
H       11.83625306      17.02848759     -14.03249053
H       12.53712248      14.93323184     -12.93167313
N       12.75279452      17.14681312     -14.45416756
H       12.73727590      17.73008129     -15.28583109
O       12.90099370      12.91428146     -11.94925678
C       13.35100793      14.92407509     -13.65469907
C       13.54725884      16.00109954     -14.52826787
N       13.86090019      12.74409468     -12.72123488
C       14.18192367      13.80304735     -13.67863943
O       14.56207296      11.69651084     -12.70989633
C       14.61295133      15.92142178     -15.43306219
H       14.81118342      16.72940700     -16.13606393
C       15.28696464      13.68032528     -14.59408909
C       15.45530261      14.81011074     -15.47145805
H       15.87772612      11.85175622     -13.96670815
N       16.09126441      12.60152656     -14.62649490
N       16.52629874      14.85295785     -16.46819196
O       16.62505419      15.86124936     -17.18923593
H       16.84498208      12.60791937     -15.31503820
O       17.31124134      13.87217524     -16.56407318
