21
Lattice="31.62425112 0.0 0.0 0.0 31.62425112 0.0 0.0 0.0 31.62425112" Properties=species:S:1:pos:R:3 dft_energy_ryd=-360.43179901 molecule_idx=1181 crystal_idx=1020 pbc="F F F"
H       13.75320878      18.38905802     -16.92228409
H       14.20951528      13.28098738     -15.60918923
N       14.30534855      13.67790648     -13.55109581
C       14.77336730      13.76477395     -14.81087244
C       14.73579770      17.99974507     -17.19943403
H       14.66943895      14.22396023     -11.57713065
N       15.00491617      16.72574138     -16.86742997
C       15.03887660      14.28987430     -12.60362208
H       15.44557770      19.83123566     -18.12980655
C       15.67680026      18.79579669     -17.86875765
O       15.69089574      13.70665741     -17.59550190
C       15.95489541      14.46362784     -15.08444997
C       16.22025227      14.98698761     -12.89738219
C       16.21977256      16.28516090     -17.20940176
S       16.56820333      14.55289260     -16.79418012
N       16.68558046      15.08574248     -14.15495259
H       16.80132219      15.47554175     -12.11167887
N       16.89628254      18.34076022     -18.21061570
C       17.17402893      17.06749746     -17.86955915
O       18.01352471      14.38368579     -16.81405987
H       18.15935724      16.66932955     -18.11555814
