18
Lattice="24.67061604 0.0 0.0 0.0 24.67061604 0.0 0.0 0.0 24.67061604" Properties=species:S:1:pos:R:3 dft_energy_ryd=-212.69242841 molecule_idx=1230 crystal_idx=1065 pbc="F F F"
H       10.53999330      14.23162405     -10.37280614
H       10.68425157      13.86071004     -12.85671360
H       11.01707629       9.26098921     -13.90573064
C       11.49859149      13.90547523     -10.80757664
C       11.56334658      14.15852881     -12.27754831
S       11.54600918      12.09447798     -10.39890970
H       11.46946455      11.05208602     -14.16922872
C       11.68007192      10.09718020     -13.68263152
H       12.32203813      14.39297179     -10.26871006
C       12.63286441      14.67812293     -12.89316293
H       12.65519284      14.82451301     -13.97360012
C       12.71800781       9.97052622     -12.84694922
H       12.91460992       9.01666835     -12.34984408
H       13.43284130      11.98865209     -13.10688938
H       13.52153271      14.96453497     -12.32666289
S       13.49193242      11.57954593     -10.69695638
C       13.62244608      11.09950042     -12.49403684
H       14.68705196      10.82121532     -12.56936527
