13
Lattice="19.02352284 0.0 0.0 0.0 19.02352284 0.0 0.0 0.0 19.02352284" Properties=species:S:1:pos:R:3 dft_energy_ryd=-154.02829327 molecule_idx=1240 crystal_idx=1073 pbc="F F F"
O        7.70347096       9.45875134     -11.70932588
H        8.00798867      10.86830500      -9.60889540
H        8.02092397       9.31203991      -8.76661355
C        8.53161386       9.20494461     -10.84626313
C        8.57024663       9.93379381      -9.49479111
O        9.46989156       8.23350728     -11.01560874
H       10.33900374       8.46272403      -7.89290036
C        9.98186454      10.21470202      -8.95695520
H        9.91596568      10.83849949      -8.04980516
H       10.55535479      10.77741914      -9.70720453
N       10.69803166       8.93268973      -8.72744577
H       11.69829769       9.08706159      -8.59025356
H       10.07240052       8.24061642     -10.19899193
