22
Lattice="36.99864756 0.0 0.0 0.0 36.99864756 0.0 0.0 0.0 36.99864756" Properties=species:S:1:pos:R:3 dft_energy_ryd=-269.64819475 molecule_idx=1254 crystal_idx=1085 pbc="F F F"
H       15.04815337      17.55723354     -21.51964556
C       16.06811955      17.74945352     -21.88778380
H       16.14177630      18.81349525     -22.14012786
H       16.22159451      17.12614705     -22.77587379
C       17.06185860      17.39417242     -20.82241802
N       17.45092962      18.36167882     -19.96675515
N       17.48356214      16.10230173     -20.79400594
H       17.85614407      20.71253194     -19.05174600
C       18.31622291      17.97980601     -19.01116436
N       18.34582590      15.73062099     -19.84151633
C       18.43818189      20.36411539     -18.19998497
C       18.77259513      19.00938833     -18.04420126
C       18.76040650      16.64843143     -18.95199705
N       18.81560617      21.28889543     -17.30091387
H       19.45663090      16.31146353     -18.18529971
N       19.52458657      18.61211388     -17.00197401
N       19.54372075      20.89957090     -16.25034658
C       19.89292045      19.58934122     -16.14749667
H       20.40444875      19.73020885     -14.07285647
C       20.76487513      19.23101629     -14.98101889
H       20.79328122      18.14497681     -14.84171834
H       21.78847701      19.59295407     -15.16107267
