13
Lattice="20.5655058 0.0 0.0 0.0 20.5655058 0.0 0.0 0.0 20.5655058" Properties=species:S:1:pos:R:3 dft_energy_ryd=-231.73140567 molecule_idx=1261 crystal_idx=1091 pbc="F F F"
H        8.14095682      10.31290758      -9.89269074
H        8.68026135       8.74596320     -10.46411396
O        8.87607380      10.49882743     -12.51503701
C        9.03381038       9.75737933     -10.21868384
C        9.54411731      10.41549138     -11.48820726
O        9.68363187       9.09257213      -7.98663676
C        9.98022252       9.65758258      -9.03562927
N       10.83332610      10.94606651     -11.42118871
H       11.18535352      11.41513036     -12.25547643
N       11.22819567      10.25971626      -9.20265339
C       11.71915911      10.90842205     -10.33986416
H       11.87595692      10.21024808      -8.41628345
O       12.84219439      11.40295289     -10.38679475
