34
Lattice="33.63706332 0.0 0.0 0.0 33.63706332 0.0 0.0 0.0 33.63706332" Properties=species:S:1:pos:R:3 dft_energy_ryd=-223.9311987 molecule_idx=1271 crystal_idx=1101 pbc="F F F"
H       13.43583802      17.88760842     -17.62705505
H       13.65710431      15.92573520     -19.15972778
H       14.35832817      19.30623599     -15.80976596
C       14.43699756      17.68659498     -17.23935805
C       14.64695704      15.73138816     -18.74015571
C       14.97232251      18.51139794     -16.23956892
H       15.01065123      14.04032525     -20.02722894
C       15.13399993      16.57631895     -17.73956817
H       15.28470328      15.93083688     -15.16218035
C       15.42516403      14.67570657     -19.24348145
H       15.43067750      14.45486043     -16.15784473
C       15.96302093      15.34201665     -15.79273291
H       16.27140262      19.92830600     -14.30895948
C       16.29997649      18.38152206     -15.80365138
C       16.42506632      16.18467798     -17.02922140
C       16.75031856      14.46415439     -18.82735087
H       16.79422306      18.60571751     -18.42250795
H       16.83422410      15.02273266     -15.20593987
C       16.87811797      19.16429269     -14.80110155
C       17.20338232      17.44376980     -16.59922853
C       17.32848144      15.24692897     -17.82478772
H       17.35705016      13.70014116     -19.31948526
C       17.66542493      18.28643526     -17.83571848
H       18.19776753      19.17359643     -17.47061076
C       18.20329834      18.95274048     -14.38496184
H       18.34373802      17.69761590     -18.46628131
C       18.49445576      17.05214465     -15.88887456
H       18.61779745      19.58811654     -13.60121954
C       18.65612594      15.11705846     -17.38887808
C       18.98148729      17.89705848     -14.88830625
C       19.19145616      15.94184885     -16.38910184
H       19.27012461      14.32221004     -17.81868126
H       19.97135014      17.70271062     -14.46872013
H       20.19261523      15.74084448     -16.00139294
