35
Lattice="51.58953828 0.0 0.0 0.0 51.58953828 0.0 0.0 0.0 51.58953828" Properties=species:S:1:pos:R:3 dft_energy_ryd=-366.81657275 molecule_idx=1270 crystal_idx=1100 pbc="F F F"
H       20.34778402      19.95308868      26.30867467
C       21.07863868      20.66659872      25.92857634
H       21.02968839      19.84200594      23.93342615
H       21.33889852      21.67164078      27.84964652
C       21.46598453      20.60917729      24.57328140
C       21.62347099      21.61696003      26.79953484
C       22.39510056      21.50495436      24.04034661
C       22.56341854      22.48159751      26.25312189
H       22.68746815      21.44909789      22.99161920
C       22.96191127      22.46975002      24.89598155
O       23.25536575      23.45411565      26.94866040
C       23.95030494      23.50649870      24.76614880
C       24.10642289      24.05528154      26.01688692
H       24.50697781      23.79253721      23.88013045
H       24.78967156      24.84543611      28.76473290
C       24.99083328      25.02229363      26.58893583
C       25.27177316      25.30611503      27.91068002
O       25.78964908      25.78894631      25.75431723
C       26.29953928      26.28011415      27.91060903
C       26.58529989      26.55871380      26.58910143
H       26.77836052      26.74421470      28.76485510
H       27.07452260      27.78194513      23.87840327
C       27.47155846      27.52394393      26.01627465
C       27.63000246      28.06969951      24.76475895
O       28.32134317      28.12660381      26.94824977
C       28.61857859      29.10626510      24.89397840
H       28.89603180      30.12282342      22.98790038
C       29.01478209      29.09707720      26.25149406
C       29.18690938      30.06917059      24.03702814
C       29.95450068      29.96265958      26.79788336
C       30.11559534      30.96579793      24.56969744
H       30.23727399      29.90980544      27.84824301
H       30.55292671      31.73157122      23.92880689
C       30.50082429      30.91101841      25.92544647
H       31.23127098      31.62516310      26.30525020
