16
Lattice="22.924996919999998 0.0 0.0 0.0 22.924996919999998 0.0 0.0 0.0 22.924996919999998" Properties=species:S:1:pos:R:3 dft_energy_ryd=-309.2660459 molecule_idx=1312 crystal_idx=1136 pbc="F F F"
N        9.34071634      10.34738612     -13.02504847
H        9.50568972      12.48316367     -10.27926914
N        9.69238430      11.16410633     -12.00255854
H       10.03355810      13.75360872      -9.27344729
N       10.15144736      12.76880350      -9.52694767
N       10.40212559       9.83542543     -13.61305322
C       11.03449231      11.12995953     -11.94863339
N       11.44883854      12.59867291     -10.00028711
N       11.47260911      10.30991577     -12.93727524
C       11.88268811      11.82655612     -11.02723228
N       12.52112637      13.10374707      -9.35235970
N       12.77883167      10.05426562     -13.34472772
H       12.90273380       9.03960066     -13.40561291
N       13.22775292      11.85031962     -11.02115383
H       13.40678254      10.46885181     -12.63747091
N       13.58234347      12.64973732      -9.98904275
