14
Lattice="22.2062904 0.0 0.0 0.0 22.2062904 0.0 0.0 0.0 22.2062904" Properties=species:S:1:pos:R:3 dft_energy_ryd=-220.30199195 molecule_idx=1350 crystal_idx=1169 pbc="F F F"
H        8.18666798      12.48252870     -10.45868565
H        8.70432173      13.03513703     -11.94714453
N        8.99827023      12.80405943     -10.99174600
N        9.49914041      10.44082157     -11.05356557
N        9.90828020      11.75744048     -11.03090851
C       10.63003389       9.76930929     -11.06900663
H       10.70205685       8.68678631     -11.06132851
C       11.28278516      11.92535424     -11.05337964
N       11.72385526      10.59685794     -11.08512184
S       12.20327092      13.30367602     -11.07503633
C       13.12632564      10.21417511     -11.13198632
H       13.19545164       9.17053534     -11.45842755
H       13.59250541      10.33232378     -10.14432737
H       13.64431399      10.87827406     -11.83661484
