21
Lattice="30.4419654 0.0 0.0 0.0 30.4419654 0.0 0.0 0.0 30.4419654" Properties=species:S:1:pos:R:3 dft_energy_ryd=-378.38272184 molecule_idx=1353 crystal_idx=1172 pbc="F F F"
H       11.72323152      13.78045619     -16.18313879
C       12.71142867      14.17596248     -15.94727227
H       12.77154461      15.44522198     -17.71652088
H       12.92267246      13.00398508     -14.15541802
C       13.30236277      15.12292082     -16.82005563
C       13.37783177      13.74408318     -14.81468401
C       14.55153628      15.64113264     -16.52623582
O       14.49440598      18.10464713     -17.61599556
C       14.66398845      14.25184448     -14.48638884
H       14.95738473      13.09358040     -12.67720915
C       15.25136996      15.23209039     -15.35389980
S       15.29907714      16.84794831     -17.65909233
C       15.39703298      13.84140251     -13.33909992
C       16.51190998      15.77162593     -15.01160297
C       16.64306296      14.37668859     -13.05822929
O       17.01219669      18.34119329     -15.52251785
S       17.08741221      17.02557034     -16.15115651
H       17.19451578      14.04400075     -12.17933355
C       17.21430116      15.36807598     -13.89419152
H       18.18694954      15.80251009     -13.66327690
O       18.31084894      16.57012394     -16.80974497
