21
Lattice="30.873792599999998 0.0 0.0 0.0 30.873792599999998 0.0 0.0 0.0 30.873792599999998" Properties=species:S:1:pos:R:3 dft_energy_ryd=-306.67280196 molecule_idx=1362 crystal_idx=1180 pbc="F F F"
O       13.05934332      17.20568755     -18.90709612
H       13.36631604      18.44650110     -16.73758702
C       13.70267275      16.81630456     -17.92942934
N       13.83725239      17.54230365     -16.74667886
H       14.30899316      15.03980140     -18.75972022
N       14.37625204      15.59097655     -17.90828453
C       14.52868663      17.19729453     -15.55592895
O       14.53947806      17.99319161     -14.60719734
C       15.05910765      15.14618310     -16.79293377
C       15.16028962      15.88379066     -15.61898430
H       15.38663916      15.41577469     -12.52197930
S       15.87949441      13.63525081     -16.67872912
C       15.91969609      15.20166297     -14.59995862
H       16.10814893      16.85465950     -13.24629045
C       16.16077555      15.76107817     -13.22502765
C       16.37202362      13.97564761     -15.02659415
H       16.54696261      12.06395756     -14.02708255
C       17.15656434      12.94824871     -14.27044632
H       17.13718087      15.44551767     -12.83359760
H       17.50291796      13.38022596     -13.32328126
H       18.03819787      12.60293475     -14.83016558
