38
Lattice="34.33894128 0.0 0.0 0.0 34.33894128 0.0 0.0 0.0 34.33894128" Properties=species:S:1:pos:R:3 dft_energy_ryd=-493.34704777 molecule_idx=1407 crystal_idx=1220 pbc="F F F"
H       14.38268986      14.86883340     -16.79835282
H       14.88375186      18.33488311     -16.49118453
N       15.26733952      14.40989015     -17.02759662
O       15.30722690      14.77436313     -19.56946961
H       15.56430536      13.89885822     -16.19553632
H       15.09164285      14.12027493     -18.83878024
H       15.23841806      20.56416264     -16.11583306
N       15.70663955      18.81045852     -16.11474186
O       15.37549893      21.24293510     -16.84584637
H       16.17704013      18.16710735     -15.46927708
C       15.99287853      15.75484159     -18.92558632
H       16.19939071      16.36052614     -16.86234077
C       16.19173031      20.59444458     -17.72182572
C       16.27353470      15.42414927     -17.44027225
H       16.57269405      18.49885047     -18.07843077
O       16.36414868      16.77571575     -19.48464716
O       16.55167434      21.09056964     -18.77769323
C       16.62473588      19.18701878     -17.22034358
H       17.36600615      13.28405250     -15.80392249
H       17.46173833      13.05067520     -18.37592785
H       17.59338754      14.90840600     -15.06888556
C       17.72926378      14.88892542     -17.25590195
H       17.69336062      20.03237827     -14.73220281
C       17.91595204      14.23661558     -15.87685016
H       18.05838989      21.25394539     -15.97368083
C       18.10634350      19.23555998     -16.74757562
H       18.12969029      14.37912076     -19.35666899
C       18.14997856      13.90803183     -18.36450858
C       18.31969720      20.24936383     -15.60927907
S       18.63671762      17.61045950     -15.92838520
H       18.91370739      18.76410927     -18.70946924
H       18.80328242      20.49898044     -18.35758220
H       18.97824234      14.00489056     -15.72892594
C       19.04122561      19.51969181     -17.92308000
S       18.98645444      16.26362574     -17.42858487
H       19.16501778      13.53439411     -18.17331472
H       19.37320692      20.25732825     -15.30018017
H       20.08399135      19.51255682     -17.57830946
