20
Lattice="28.79700012 0.0 0.0 0.0 28.79700012 0.0 0.0 0.0 28.79700012" Properties=species:S:1:pos:R:3 dft_energy_ryd=-260.4140644 molecule_idx=1411 crystal_idx=1223 pbc="F F F"
H       12.12567390      11.67045426     -15.58990874
H       12.10722764      13.88639045     -16.65296949
C       12.79617230      12.44140137     -15.21104304
C       12.78468361      13.69343129     -15.82043748
H       13.23831896      16.43263549     -16.65729026
C       13.66075269      14.72259078     -15.35465747
H       13.63393315      11.11487796     -13.66262349
C       13.64806133      12.10592826     -14.11388396
C       13.83380842      16.06197902     -15.82209766
C       14.47638314      14.36190428     -14.27973625
C       14.48543124      13.10585993     -13.66480493
C       14.76587265      16.89771662     -15.21216501
H       14.88367385      17.91308389     -15.58951893
C       15.41254626      15.20101718     -13.66671227
N       15.45520213      13.15692033     -12.62047142
C       15.58774869      16.49335064     -14.11518181
O       15.79019751      12.26228995     -11.80947643
N       16.02938967      14.44937590     -12.62278509
H       16.31085338      17.17158310     -13.66384449
O       16.91962747      14.80276732     -11.81594988
