13
Lattice="21.4148718 0.0 0.0 0.0 21.4148718 0.0 0.0 0.0 21.4148718" Properties=species:S:1:pos:R:3 dft_energy_ryd=-231.59453093 molecule_idx=1461 crystal_idx=1265 pbc="F F F"
H        8.31019369      11.99515794     -12.12406994
C        9.14140653      11.41815712     -11.71010257
N        9.38414606      10.24600429     -12.28516242
N        9.78342057      12.03746150     -10.66300982
C       10.43471117       9.59570522     -11.70325206
C       10.81827425      11.41487384     -10.10018966
C       11.19331428      10.11857126     -10.60640748
N       10.93992649       8.40031142     -12.03114134
H       11.21897672      12.91860789      -8.77082766
N       11.49427266      11.99196116      -9.08063427
N       12.14800901       9.27061079     -10.25603221
O       11.98177513       8.21244137     -11.14283582
H       12.31887828      11.54744096      -8.69363951
