24
Lattice="34.80961176 0.0 0.0 0.0 34.80961176 0.0 0.0 0.0 34.80961176" Properties=species:S:1:pos:R:3 dft_energy_ryd=-512.02205998 molecule_idx=1463 crystal_idx=1267 pbc="F F F"
H       15.23148330      16.25735074     -17.28549269
S       15.49852949      13.24573807     -19.85351363
H       15.50719625      17.78394104     -18.17606765
N       15.64637035      14.58811604     -18.93642207
H       15.75992398      18.22673387     -15.77400788
C       15.98479583      17.00818493     -17.54795988
C       16.54279117      17.64587053     -16.27487769
C       16.80661439      15.26947968     -19.09926902
H       16.88100995      16.84923225     -15.58584824
N       17.06486288      16.36272327     -18.29997256
N       17.16887558      19.80832286     -14.65890948
S       17.39469086      13.52241743     -20.82817649
S       17.67046607      20.99659337     -13.65711995
N       17.66238732      18.54633064     -16.59335907
N       17.73717331      14.89151329     -20.01035706
H       17.76140652      18.07569074     -19.32552257
C       18.03441592      19.48959541     -15.65158345
C       18.14713271      17.28566989     -18.65356489
C       18.72637436      17.92035908     -17.39247546
H       18.92947359      16.72913435     -19.18007634
N       19.25068335      20.07888574     -15.75828903
H       19.23858628      17.14509794     -16.79281798
H       19.45968025      18.68754883     -17.66541761
S       19.55676519      21.24715897     -14.66058813
