22
Lattice="26.778578399999997 0.0 0.0 0.0 26.778578399999997 0.0 0.0 0.0 26.778578399999997" Properties=species:S:1:pos:R:3 dft_energy_ryd=-208.95862278 molecule_idx=1477 crystal_idx=1279 pbc="F F F"
H       11.13698920      12.86456947     -13.45324634
H       11.76633616      14.53026467     -15.08703696
H       11.84463349      12.13106859     -12.00019616
H       11.90882777      14.81733779     -12.11851653
C       12.06978104      12.74015302     -12.88437037
C       12.67942488      14.11418351     -12.45588348
C       12.83122779      14.25087182     -15.03821435
C       12.94027021      12.71612696     -15.13909655
H       13.10321267      10.99739969     -13.81785925
C       13.16444305      12.08934608     -13.76421620
O       12.82873235      12.09379330     -16.18874324
H       13.33462331      14.70737590     -15.90022467
C       13.46495242      14.69798925     -13.68951093
H       13.54899981      14.08468725     -10.33975434
H       13.58456969      15.78509554     -13.62751968
C       13.66377634      13.74037540     -11.36687338
C       14.59953556      12.55228932     -13.24308341
C       14.60927118      12.86483132     -11.75813456
C       14.81518436      13.98284897     -13.76767965
H       15.39496467      11.87474884     -13.56537526
H       15.39140246      12.46645001     -11.11328348
O       15.85769568      14.43704745     -14.22003537
