14
Lattice="26.27128728 0.0 0.0 0.0 26.27128728 0.0 0.0 0.0 26.27128728" Properties=species:S:1:pos:R:3 dft_energy_ryd=-356.10667977 molecule_idx=1473 crystal_idx=1276 pbc="F F F"
H        9.92942210      11.08063598     -13.91473799
H       10.25421889      10.49878578     -12.32669156
N       10.60589311      10.94275466     -13.17208715
C       11.56412882      11.90135314     -12.96744131
S       12.07172632      13.03833434     -14.19651270
N       12.22625877      12.00635042     -11.81602763
N       13.16950610      12.98316006     -11.85584788
C       13.21841841      13.61426145     -13.00084430
O       14.02507853      15.37850695     -14.70308464
S       14.37238676      14.93737437     -13.36529975
O       14.41955603      15.81801188     -12.22089655
N       15.87112548      14.23480932     -13.47543278
H       15.94788393      13.58445075     -14.25989084
H       16.18425496      13.84106925     -12.58506313
