32
Lattice="30.995296919999998 0.0 0.0 0.0 30.995296919999998 0.0 0.0 0.0 30.995296919999998" Properties=species:S:1:pos:R:3 dft_energy_ryd=-221.09972484 molecule_idx=1481 crystal_idx=1282 pbc="F F F"
H       11.90772659      14.06927966     -15.44242259
H       12.91716114      15.00988423     -17.58479396
H       12.93601476      16.16066621     -16.21711986
C       12.99410180      14.08343478     -15.61260903
H       13.30390961      13.11006002     -16.01843445
H       13.30273874      15.27867355     -13.83587454
C       13.35197319      15.19402600     -16.59115730
H       13.55854903      13.52991831     -13.58358580
C       13.71581121      14.35051224     -14.29881660
H       14.58317893      16.07916500     -18.66998350
H       14.68905470      17.32675899     -17.39600330
N       14.80840560      15.29310408     -16.75609318
H       15.06323391      16.54612402     -15.04897755
C       15.10112417      16.34629489     -17.73699963
N       15.16380902      14.48162617     -14.51075770
H       15.40059521      15.64469471     -12.73790461
C       15.46629389      15.56286536     -15.46580137
H       15.54943033      13.87467826     -12.55555101
C       15.80717912      14.71908904     -13.21144946
C       16.60223254      16.48250575     -17.95430800
H       16.80433870      17.31721166     -18.64062222
N       16.92283067      15.68509742     -15.64754532
H       16.92600948      17.74143466     -16.22402936
H       17.00517396      15.55924997     -18.39406343
H       17.23676970      16.93962667     -13.94948217
C       17.25887710      16.74631747     -16.60551163
C       17.31552446      14.85722534     -13.36698460
C       17.59131121      15.96812791     -14.37059044
H       17.74297183      13.91243941     -13.73138600
H       17.76932441      15.10379737     -12.39604789
H       18.35544354      16.77565355     -16.69068792
H       18.66776013      16.06931577     -14.57326435
