45
Lattice="42.46136748 0.0 0.0 0.0 42.46136748 0.0 0.0 0.0 42.46136748" Properties=species:S:1:pos:R:3 dft_energy_ryd=-459.60509984 molecule_idx=1493 crystal_idx=1291 pbc="F F F"
H       17.96133564      18.44772567     -18.44600073
H       17.95558056      20.97814855     -18.60573664
H       18.05860705      19.64383679     -22.10879121
H       18.21451651      23.41945293     -19.07063473
H       18.55359782      17.96720991     -21.81283915
H       18.73956298      18.67360037     -23.44411381
C       18.82225540      18.35775159     -19.15397630
C       18.81189129      20.84204218     -19.26813194
C       18.80941519      18.88113395     -22.36852479
H       18.86117996      23.82871409     -20.68109750
C       19.09997988      23.35930832     -19.71642605
O       19.24983216      17.24087400     -19.48265494
C       19.34385055      19.62686710     -19.61805203
C       19.51133705      21.92628132     -19.90199117
H       19.90572930      23.95314743     -19.26151373
C       20.18884297      19.34280529     -22.01429345
H       20.36949582      26.13180787     -22.82142067
C       20.48521689      19.84689314     -20.57252760
C       20.53965622      21.38527414     -20.67205973
H       20.62104882      26.03547185     -21.03133242
O       20.86636343      24.26908654     -22.14898966
C       20.98405134      25.71496018     -22.01759935
H       21.11887587      19.12425743     -23.91029739
C       21.21456675      19.41499841     -22.86402608
H       21.42618649      17.90742788     -18.52738928
C       21.53538854      22.08840606     -21.44485252
C       21.60886105      23.58461840     -21.23686466
H       21.62476064      19.57810232     -17.96890144
C       21.85455317      19.31327032     -20.09156881
C       22.00532142      18.82945968     -18.68206032
H       22.03831246      26.00103539     -22.12890871
O       22.19108316      24.09845747     -20.28855324
C       22.48652205      21.46652077     -22.22462946
C       22.54830505      19.94558252     -22.36743116
C       22.84384863      19.37513354     -20.98613528
H       23.06026000      18.62879986     -18.45307339
H       23.34680052      19.68812389     -23.06759361
O       23.50532468      23.53924615     -22.95866608
C       23.51443763      22.30816042     -22.89120541
H       23.86595466      19.08333968     -20.74501795
O       24.52602089      21.55704463     -23.43846214
H       25.16966822      22.81456868     -24.98926330
C       25.56759545      22.33950393     -24.08263014
H       25.93649010      23.11851093     -23.40309355
H       26.35601539      21.62153817     -24.32916831
