16
Lattice="29.24549712 0.0 0.0 0.0 29.24549712 0.0 0.0 0.0 29.24549712" Properties=species:S:1:pos:R:3 dft_energy_ryd=-351.97816752 molecule_idx=1490 crystal_idx=1288 pbc="F F F"
N       13.71742346      15.02204544     -16.18876693
H       13.75918296      15.00447640     -10.39699553
S       13.81144554      12.41635876     -15.27065152
H       14.08839211      16.72410449     -17.46754189
C       14.19350295      13.74098856     -16.37013248
C       14.22481447      15.67342088     -17.22856903
N       14.28731473      13.57098847     -11.77709102
N       14.27950756      14.81947232     -11.25100363
N       14.96358214      14.81947607     -17.99216454
N       14.95562751      13.57096838     -17.46584049
C       15.01809709      15.67328884     -12.01437931
C       15.04944546      13.74100297     -12.87279872
H       15.15456424      16.72415362     -11.77540874
S       15.43152069      12.41635461     -13.97230622
H       15.48370431      15.00446368     -18.84585028
N       15.52551995      15.02208170     -13.05414496
