10
Lattice="18.25867008 0.0 0.0 0.0 18.25867008 0.0 0.0 0.0 18.25867008" Properties=species:S:1:pos:R:3 dft_energy_ryd=-133.47161041 molecule_idx=1524 crystal_idx=1317 pbc="F F F"
O        7.30862576       9.03500194     -10.74613166
O        7.98721700      11.06845606      -8.19637900
C        8.19316856       9.13016162      -9.92622041
C        8.51220937      10.09891915      -8.69395003
H        9.30159434       7.28390520      -9.37953087
C        9.49183503       8.33998075      -9.61261538
H        9.74701643       8.78474953      -7.41212079
C        9.78861927       9.26718733      -8.39847685
H       10.22043812       8.39385770     -10.43364170
H       10.71099441       9.85949902      -8.46265161
