17
Lattice="26.62421076 0.0 0.0 0.0 26.62421076 0.0 0.0 0.0 26.62421076" Properties=species:S:1:pos:R:3 dft_energy_ryd=-192.87339014 molecule_idx=1555 crystal_idx=1344 pbc="F F F"
O       11.27130590      15.00349036     -16.08887159
H       11.30976086      14.13278549     -11.46259223
O       11.79827548      14.35495871     -13.98866388
C       12.08131334      14.42349255     -15.38286098
C       12.23695713      13.64813309     -11.76627584
C       12.62831482      13.69536495     -13.10943238
H       12.74101799      12.92975651      -9.80513398
C       13.04498289      12.97501339     -10.85058716
C       13.31678129      13.78855562     -15.81858530
H       13.52759041      13.85435739     -16.88437345
C       13.82525486      13.08125643     -13.54622589
C       14.14501923      13.15630066     -14.94665070
C       14.23952050      12.35537127     -11.26009593
C       14.62636809      12.41382294     -12.59442495
H       14.85511740      11.82447899     -10.53499850
H       15.06801986      12.68968789     -15.29862699
H       15.55070672      11.93948053     -12.92790698
