46
Lattice="48.3368634 0.0 0.0 0.0 48.3368634 0.0 0.0 0.0 48.3368634" Properties=species:S:1:pos:R:3 dft_energy_ryd=-667.78514431 molecule_idx=1554 crystal_idx=1343 pbc="F F F"
H       20.52192262      25.74733486      28.32176078
H       21.12044233      28.12699123      28.74603888
H       21.09619118      23.33809673      23.71886667
C       21.30565967      26.23131034      27.73951425
C       21.65103119      27.56292915      27.97825710
S       21.75330580      23.82016919      26.40476721
C       22.00238106      25.51864749      26.75659996
C       22.06694164      23.38443683      23.21190533
H       22.04841701      22.73215855      22.32948458
H       22.24930773      24.41778480      22.88696683
C       22.69500335      28.16851699      27.25866949
S       22.92244802      21.12268310      24.54475006
H       22.98578404      29.19528456      27.47917020
C       23.02099402      26.13047279      25.97564632
C       23.20364374      22.91647814      24.15407906
C       23.34425831      23.75503670      25.43934268
C       23.37135136      27.46308754      26.26590631
H       23.56300396      18.52269256      23.25183662
C       23.64365896      25.20064071      25.04469709
N       23.91389957      27.75133979      23.35464081
C       24.04130126      20.63508086      23.29120001
C       24.16354809      19.32243897      22.81896941
H       24.24376323      22.24170695      26.74720415
H       24.17957198      27.94088023      25.72044652
C       24.45897501      23.25676148      26.39225078
H       24.52293416      23.93677882      27.25139028
C       24.47519606      25.39452488      23.96758392
S       24.60514246      28.91141950      22.42438281
C       24.52243866      22.98341822      23.37620728
C       24.73946255      26.68963446      23.33002021
C       24.82120237      21.69930764      22.75515670
C       25.05253312      19.06038285      21.77569849
H       25.15584703      18.04170038      21.40066871
C       25.13949313      24.21477776      23.32516475
H       25.42362849      23.25181448      25.86614527
C       25.67961920      21.40572024      21.67590502
C       25.79129140      20.10368607      21.19376385
C       25.89981155      26.91657555      22.50448897
N       25.96295371      28.12865773      21.93935585
H       26.26587087      22.19586221      21.21914081
C       26.45302245      24.50213228      22.73382853
H       26.46079815      19.89631449      20.35963910
C       26.84864060      25.83702735      22.34340006
N       27.44561990      23.61100451      22.56425967
N       28.09636979      25.94136735      21.87160100
S       28.72439866      24.42801199      21.94230688
