35
Lattice="53.07315048 0.0 0.0 0.0 53.07315048 0.0 0.0 0.0 53.07315048" Properties=species:S:1:pos:R:3 dft_energy_ryd=-430.67301963 molecule_idx=1569 crystal_idx=1355 pbc="F F F"
H       24.06389548      23.48451696      33.17917080
H       24.18009671      21.55713039      31.60567705
C       24.46402665      23.62924084      32.17601969
C       24.53205733      22.53744242      31.28424416
H       24.84471870      25.73532970      32.46173622
C       24.89852061      24.88738014      31.77775971
C       25.03632865      22.69699558      29.99928588
H       25.09103417      21.86516428      29.29850744
C       25.40238686      25.08029211      30.47339218
C       25.47278859      23.96883337      29.58358190
H       25.78669848      27.23405275      30.67652894
C       25.82544812      26.37642420      30.00060349
C       25.96689240      24.24779757      28.27232896
N       26.15007559      23.47224033      27.19980967
N       26.25680081      26.64892955      28.79023473
N       26.30159129      25.56460776      27.96056696
N       26.58952342      24.27570256      26.18410120
C       26.67761385      25.54155519      26.62610470
H       27.10793916      25.70693426      24.02679310
H       27.09165118      26.68074097      21.87605007
C       27.02830921      26.71245085      25.86824026
C       27.22393688      26.67214333      24.52635417
H       27.07355916      27.64829892      26.42771177
C       27.39016204      27.65218449      22.27102481
H       27.50758344      28.60874007      20.32172381
C       27.51928378      27.80966295      23.67076362
C       27.61709598      28.71238160      21.39950366
O       28.10222117      30.88647047      19.79973731
C       27.91628560      29.07191187      24.17108036
C       27.99597723      29.94686082      21.93368015
H       28.05261356      29.20994179      25.24346641
N       28.24568975      31.08140460      21.02006304
C       28.15532503      30.13647179      23.31215478
H       28.46887023      31.11181849      23.67833206
O       28.58326798      32.16821614      21.52393598
