13
Lattice="21.36385692 0.0 0.0 0.0 21.36385692 0.0 0.0 0.0 21.36385692" Properties=species:S:1:pos:R:3 dft_energy_ryd=-181.96780107 molecule_idx=1576 crystal_idx=1359 pbc="F F F"
H        8.41237002      11.22540117     -10.39158023
H        9.25632505      12.18991389     -11.64814652
C        9.36619054      11.70550639     -10.66321149
H        9.47567950       9.17610184     -11.56311649
H        9.63239443      12.45517546      -9.90895887
N       10.34400006       9.70367587     -11.70363316
H       10.29248456      10.14801469     -12.62880392
N       10.43009275      10.71171028     -10.71492612
C       11.59142255      10.79469217      -9.97032970
S       11.87661867      11.98630220      -8.81961592
H       12.28980410       9.08873557     -10.90339670
N       12.50967957       9.82493317     -10.23777634
H       13.34697148       9.81387052      -9.67053783
