16
Lattice="25.96339872 0.0 0.0 0.0 25.96339872 0.0 0.0 0.0 25.96339872" Properties=species:S:1:pos:R:3 dft_energy_ryd=-245.6001012 molecule_idx=1597 crystal_idx=1379 pbc="F F F"
H       10.40413596      12.19899356     -10.55681521
H       11.07378466      13.68988658     -10.05029521
N       11.22498906      12.79665993     -10.51331799
H       11.56102043      10.92329934     -12.18622527
C       12.00813541      12.89851007     -11.65080805
N       12.06760198      11.76725215     -12.45162003
C       12.85834843      11.63387196     -13.63362474
N       12.67679150      14.00855685     -11.88173684
C       13.57240926      12.84960268     -13.85064282
C       13.47365401      13.95887984     -12.99542159
O       12.85763964      10.58075824     -14.29274542
N       14.46413456      13.21789586     -14.83922336
H       14.75888508      12.63551115     -15.61740300
N       14.27999779      14.98547144     -13.44729556
C       14.85208392      14.50159041     -14.54745852
H       15.55560150      15.04247308     -15.17457961
