14
Lattice="22.033559519999997 0.0 0.0 0.0 22.033559519999997 0.0 0.0 0.0 22.033559519999997" Properties=species:S:1:pos:R:3 dft_energy_ryd=-240.74625561 molecule_idx=1652 crystal_idx=1426 pbc="F F F"
H        8.17733176      10.44395376     -11.01440969
H        8.43627182      12.77277430     -11.01440859
N        9.13250944      10.80508697     -11.01440937
C        9.33995798      12.16122728     -11.01440878
S        9.74839894       8.20332381     -11.01441379
C       10.14005575       9.81459644     -11.01441065
N       10.51829482      12.74339621     -11.01440862
C       11.43576368      10.42243238     -11.01440947
C       11.53858757      11.83158108     -11.01440882
C       12.77654303       9.95804167     -11.01440951
N       12.86990370      12.10860631     -11.01440863
H       13.13668702       8.93394834     -11.01440981
H       13.31053121      13.02298227     -11.01440845
N       13.64089640      10.97978235     -11.01440897
