27
Lattice="41.0349618 0.0 0.0 0.0 41.0349618 0.0 0.0 0.0 41.0349618" Properties=species:S:1:pos:R:3 dft_energy_ryd=-280.19725517 molecule_idx=1656 crystal_idx=1429 pbc="F F F"
H       16.56227807      22.29640281     -24.29543253
H       17.08306308      22.56161801     -21.87963727
C       17.41148241      21.76749655     -23.86252261
C       17.70337636      21.91651161     -22.50520034
H       17.98367061      20.82530468     -25.72296016
C       18.20949481      20.94393049     -24.66334481
H       18.41408837      22.14782354     -19.96631232
C       18.79521730      21.24013323     -21.92438187
C       19.05462799      21.42739191     -20.50224054
C       19.30198339      20.26985896     -24.09689843
H       19.61166543      21.74993385     -18.05954274
C       19.59537603      20.41315939     -22.74268619
H       19.92862406      19.63210818     -24.72100865
N       19.99683584      20.78884842     -19.87365813
N       20.16993831      21.04964621     -18.55915813
H       20.44639373      19.89648608     -22.30047552
C       21.18171809      20.44689795     -17.81564881
S       21.40373826      20.91454495     -16.22350632
H       21.65137797      19.40497606     -19.47839124
N       21.88984684      19.51292888     -18.49242372
H       22.92074438      18.70073034     -16.88925865
C       23.08135709      18.85211266     -17.96474845
H       23.15064599      17.86650001     -18.44630088
H       24.26082853      20.64379818     -17.69551731
C       24.35566251      19.67136960     -18.19639641
H       24.53408994      19.83780473     -19.26839115
H       25.22659438      19.14640232     -17.77867636
