42
Lattice="52.84384812 0.0 0.0 0.0 52.84384812 0.0 0.0 0.0 52.84384812" Properties=species:S:1:pos:R:3 dft_energy_ryd=-466.41121201 molecule_idx=1660 crystal_idx=1432 pbc="F F F"
H       24.19415878      23.83903610      28.81756175
H       24.52565651      21.61735473      29.92586702
H       24.59335430      29.57673089      27.43171898
H       24.65390913      31.73373314      28.69397827
H       24.70238164      25.70775608      23.17063588
H       24.92499169      25.90173215      20.68946606
C       25.08233482      23.63776533      29.41408653
C       25.27992316      22.39766445      30.03116278
C       25.39953691      30.28995998      27.27942566
C       25.44852236      31.49545554      27.98647099
C       25.54449821      25.25716612      22.64945969
C       25.68258444      25.36786388      21.26373072
O       25.88837615      25.92258885      29.03867178
C       26.05190087      26.12163222      27.70442300
C       26.06332548      24.61663685      29.56178314
N       26.10134264      27.42533968      27.36782493
N       26.14751541      25.06773271      26.88809926
C       26.28607025      27.61179244      26.05729140
C       26.30637676      25.42425933      25.59911920
O       26.40668343      24.35981482      24.76000041
C       26.42732143      30.00594181      26.37902530
O       26.41770449      28.86428363      25.54849242
C       26.43759073      22.15218651      30.78005461
N       26.38727866      26.66343017      25.10775262
C       26.50258827      32.39593444      27.79090665
C       26.52942100      24.57832241      23.36770784
H       26.52722023      33.33249676      28.34748050
H       26.58039716      21.18440357      31.26024108
C       26.78423736      24.79956959      20.61175574
H       26.88008088      24.88792675      19.52979536
C       27.22173845      24.39434371      30.30334139
C       27.40808098      23.15067247      30.91515023
C       27.48159590      30.89350954      26.16131198
C       27.51750573      32.09502370      26.87573849
C       27.63227437      24.00251575      22.73974069
C       27.75590148      24.11596446      21.34988566
H       27.95684885      25.19249143      30.39595441
H       28.25207741      30.63681204      25.43525113
H       28.31240511      22.96778841      31.49620320
H       28.33907235      32.79339591      26.71333800
H       28.37487113      23.47560038      23.33715707
H       28.61551646      23.67054279      20.84810974
