46
Lattice="45.12996432 0.0 0.0 0.0 45.12996432 0.0 0.0 0.0 45.12996432" Properties=species:S:1:pos:R:3 dft_energy_ryd=-575.59397757 molecule_idx=1719 crystal_idx=1488 pbc="T T T"
H       17.45296965      24.53850571      22.47719508
H       17.70128143      23.50701836      21.03222015
H       18.18738049      25.22979876      20.99570021
C       18.12146939      24.33066784      21.62134871
H       19.52283152      27.37489402      22.40741512
O       19.11400769      21.62169198      21.75276133
H       19.45842782      25.10972763      23.82105446
N       19.44487366      23.92587916      22.07632499
C       19.72686154      22.56588367      22.24976634
C       20.16391647      24.74012219      23.05295630
C       20.36276410      26.96617865      21.82588835
H       20.62418232      20.42956337      23.28804505
H       20.00201879      26.68791073      20.82216126
N       20.81859669      22.47429895      23.11865537
H       21.14259814      27.73043661      21.72098351
N       20.94325706      25.83554534      22.52640566
C       21.25027496      23.76221740      23.61199581
C       21.33459446      21.21174062      23.59373525
H       21.39992933      21.26095831      24.69900063
H       21.31362574      23.74235206      24.71713777
O       21.93236899      18.80150882      22.10178359
C       22.30540357      25.56701837      22.50096015
N       22.49202182      24.28756925      23.05454518
N       22.63225673      20.83661866      23.05518666
C       22.81872880      19.55711121      22.50198008
O       23.19129225      26.32246422      22.10031378
H       23.81137382      21.38248843      24.71704427
H       23.72504672      23.86391535      24.69796723
C       23.78993008      23.91268728      23.59264943
C       23.87422954      21.36218837      23.61192707
N       24.18061109      19.28855947      22.52680778
H       23.98072394      17.39380811      21.72112063
N       24.30568435      22.64993188      23.11784691
H       25.12130025      18.43626091      20.82214952
H       24.50017183      24.69472932      23.28631912
C       24.76083165      18.15780752      21.82588900
C       24.96033808      20.38395589      23.05274185
C       25.39714252      22.55793779      22.24852264
N       25.67908847      21.19793196      22.07568423
H       25.66602560      20.01457396      23.82071932
O       26.00975981      23.50188499      21.75104803
H       25.60077671      17.74885885      22.40713927
C       27.00258997      20.79294939      21.62060335
H       26.93657341      19.89365531      20.99528502
H       27.42253553      21.61648624      21.03112511
H       27.67115496      20.58552891      22.47642631
