19
Lattice="27.8631738 0.0 0.0 0.0 27.8631738 0.0 0.0 0.0 27.8631738" Properties=species:S:1:pos:R:3 dft_energy_ryd=-282.98113018 molecule_idx=1730 crystal_idx=1499 pbc="F F F"
H       11.46628061      16.19204970     -14.11203516
O       11.66100790      14.72374127     -16.10524990
N       12.21648523      15.50763628     -14.01178565
C       12.37703614      14.65123774     -15.10455038
H       12.63168275      12.31677346     -16.36112552
O       12.67624957      16.37599652     -11.93596396
C       12.94788401      15.56010575     -12.81374973
N       13.40315528      13.70481874     -14.98233771
C       13.58659652      12.80289591     -16.13315636
H       13.89865893      13.38455551     -17.00959587
C       14.03942885      14.54918468     -12.77217067
C       14.22673564      13.65165873     -13.86137498
H       14.35012703      12.06782765     -15.87139924
N       14.84105118      14.52254914     -11.69685721
N       15.21112241      12.72968991     -13.84352263
C       15.82416045      13.61194164     -11.69182161
C       15.99994185      12.72035489     -12.76112844
H       16.48334299      13.59265033     -10.82177457
H       16.80155371      11.97683322     -12.75290165
