19
Lattice="29.809571400000003 0.0 0.0 0.0 29.809571400000003 0.0 0.0 0.0 29.809571400000003" Properties=species:S:1:pos:R:3 dft_energy_ryd=-205.30373083 molecule_idx=1732 crystal_idx=1501 pbc="F F F"
H       12.75285979      16.99859395     -13.41296966
N       13.17385916      15.26504530     -14.42503137
N       13.48814811      16.45731708     -13.85342578
H       13.47820673      13.12909137     -15.61427538
H       14.18933331      11.24209919     -16.53146481
N       14.38519584      13.58033059     -15.52497697
C       14.36285005      14.81928959     -14.87345679
H       14.56115985      18.69484346     -12.99652381
C       14.81573755      16.77157656     -13.92124760
C       15.21853022      11.59570659     -16.68276905
H       15.41312839      11.68281351     -17.76089121
C       15.50215216      12.93781879     -16.02519126
C       15.36926095      18.02899950     -13.33100549
C       15.42377266      15.71394458     -14.59017300
H       15.97730428      18.57474748     -14.06628905
H       16.00819736      17.80949100     -12.46260474
H       15.92345943      10.85639336     -16.28155052
O       16.64420058      13.41178544     -15.95656716
H       16.46708707      15.58455630     -14.84402988
