8
Lattice="18.5897376 0.0 0.0 0.0 18.5897376 0.0 0.0 0.0 18.5897376" Properties=species:S:1:pos:R:3 dft_energy_ryd=-56.83411754 molecule_idx=1733 crystal_idx=1502 pbc="F F F"
H        8.03739889       9.50990232      -8.33908273
H        8.44610912       9.75445154     -10.63756276
C        8.81415431       8.89337559      -8.79883414
H        8.89482925       7.87845648      -8.40598599
N        9.02994853       8.99758296     -10.26730398
C       10.02926918       9.57647655      -9.32894209
H       10.08977324      10.66349229      -9.23520325
H       10.98888629       9.05663107      -9.31745386
