11
Lattice="21.30786756 0.0 0.0 0.0 21.30786756 0.0 0.0 0.0 21.30786756" Properties=species:S:1:pos:R:3 dft_energy_ryd=-262.69407401 molecule_idx=1747 crystal_idx=1513 pbc="F F F"
H        8.37942590       9.25985992     -10.78516817
N        9.27828581       9.73320228     -10.79908146
N        9.50080065      10.79069697      -9.97359607
C       10.36545955       9.38996290     -11.63119911
O       10.45589192       8.49743768     -12.46335882
C       10.73073969      11.13991002     -10.26289119
O       10.86267495      12.89413404      -8.76236905
N       11.30821248      10.36098086     -11.23157563
N       11.44224638      12.23742779      -9.63200215
H       12.25062221      10.46996547     -11.59390501
O       12.60879235      12.40957396     -10.04800518
