23
Lattice="39.099942000000006 0.0 0.0 0.0 39.099942000000006 0.0 0.0 0.0 39.099942000000006" Properties=species:S:1:pos:R:3 dft_energy_ryd=-398.93296891 molecule_idx=1774 crystal_idx=1537 pbc="F F F"
H       18.38985971      18.49900712     -15.98445471
H       18.46678848      16.00398083     -15.78535165
C       18.61669884      17.86554122     -16.84200299
S       18.95902934      22.16169837     -19.37163116
C       18.66214311      16.48591244     -16.74306998
N       18.87528826      19.85612136     -18.17698215
C       18.88322913      18.48863007     -18.08550884
C       19.14426589      20.39938843     -19.34976793
C       18.96151658      15.68852857     -17.87623163
H       18.99946678      14.60420838     -17.77051120
C       19.18054087      17.68219978     -19.23287326
C       19.20954076      16.27184008     -19.10698245
C       19.43850665      19.58571263     -20.51125298
N       19.45676433      18.26679327     -20.44257459
H       19.43801763      15.67733594     -19.99154261
S       19.65950711      20.22132705     -22.15239174
C       19.98449885      22.64984224     -20.71406164
C       20.26864621      21.84862116     -21.86814983
H       20.53228489      24.68989948     -20.04234812
C       20.57137872      23.89748105     -20.78372352
C       21.05561320      22.51533855     -22.78548652
S       21.42760667      24.10984612     -22.25980024
H       21.42931260      22.14125046     -23.73380485
