10
Lattice="16.39286964 0.0 0.0 0.0 16.39286964 0.0 0.0 0.0 16.39286964" Properties=species:S:1:pos:R:3 dft_energy_ryd=-140.24249981 molecule_idx=1796 crystal_idx=1556 pbc="F F F"
O        5.85327902       7.71330011      -8.46051532
O        7.06455278       8.79850469      -6.87067734
C        6.92817742       8.08675341      -8.02058203
C        8.27390142       7.77026479      -8.70045586
H        8.15000192       7.90870383      -9.78425373
H        8.46475289       6.70138856      -8.52781630
H        8.05257339       8.96226304      -6.81440478
N        9.36220599       8.57205910      -8.10278045
H        9.57264287       9.39553603      -8.66800178
H       10.22152732       8.03484142      -7.99412741
