25
Lattice="32.4074142 0.0 0.0 0.0 32.4074142 0.0 0.0 0.0 32.4074142" Properties=species:S:1:pos:R:3 dft_energy_ryd=-303.73786057 molecule_idx=1846 crystal_idx=1596 pbc="F F F"
H       12.80222668      18.62252065     -17.78290843
O       13.08116588      15.97013433     -17.88169997
C       13.71285844      18.21125938     -17.35460540
H       13.82006053      14.58712818     -17.57883982
C       13.92307443      16.77373073     -17.36832235
H       14.56324410      20.11624705     -16.76080518
O       14.58645088      14.02433058     -17.19452075
C       14.64145241      19.03114952     -16.81168471
C       15.15490214      16.31702282     -16.75362554
C       15.45750830      14.92262437     -16.67704900
O       15.81105234      18.60781023     -16.25286684
C       16.07730511      17.23984902     -16.20963165
H       16.30836298      12.42669480     -16.60638288
C       16.64044147      14.47977444     -16.06925155
H       16.85435677      12.66192356     -14.92708081
C       16.97138619      13.01567482     -15.96332931
C       17.27498505      16.85011628     -15.60833105
C       17.51373095      15.45799041     -15.55655839
H       17.88416072      18.85342259     -15.08550225
H       18.01656428      12.83221033     -16.24558850
C       18.27315148      17.83074285     -15.04259395
H       18.50430647      17.61457893     -13.98541903
O       18.66515866      14.97627146     -14.97061709
H       19.22365459      17.81708038     -15.60324218
H       19.21069292      15.73196601     -14.68179713
