22
Lattice="26.03510532 0.0 0.0 0.0 26.03510532 0.0 0.0 0.0 26.03510532" Properties=species:S:1:pos:R:3 dft_energy_ryd=-330.05314034 molecule_idx=1850 crystal_idx=1600 pbc="F F F"
O       10.15197627      12.52989544     -13.46539566
H       10.11006986      12.85662085     -14.39747773
H       11.08898234      13.86232680     -12.15787313
C       11.33672059      13.11740645     -12.94027788
H       11.59689928      10.73468463     -13.62716585
H       11.69000851      11.61728429     -11.41244212
O       11.60834046      13.92038055     -15.18099102
C       12.21338086      12.01927170     -12.29808958
C       12.10118953      13.84087333     -14.05975046
O       12.46708395      10.96627133     -13.24374045
H       13.42321587      13.33332778     -11.08404182
H       13.27434713      15.12503221     -12.83816026
C       13.57150298      12.58378648     -11.87689375
C       13.45611066      14.39548320     -13.65804795
O       14.09502736      15.01827692     -14.76155517
O       14.42141320      11.57246796     -11.30178874
C       14.29519254      13.25347226     -13.05487641
H       14.48310115      12.50069279     -13.84154325
H       14.35941823      10.79558741     -11.89383157
H       15.00888727      15.20620378     -14.47221250
H       15.98078274      13.16772239     -12.07846892
O       15.53040529      13.84698749     -12.61943203
