25
Lattice="38.36419524 0.0 0.0 0.0 38.36419524 0.0 0.0 0.0 38.36419524" Properties=species:S:1:pos:R:3 dft_energy_ryd=-326.05331734 molecule_idx=1851 crystal_idx=1601 pbc="F F F"
H       14.74976135      19.23112144     -20.57833355
H       15.07597448      20.87636943     -22.44413758
C       15.74050517      19.40274176     -21.00652085
C       15.92194060      20.32090913     -22.04140317
N       16.74027704      18.67426293     -20.46835305
H       17.57450070      16.93208153     -18.98357432
C       17.22010897      20.51148661     -22.53488236
H       17.41126353      21.23297209     -23.32987654
C       17.97731369      18.85815374     -20.96056797
C       18.59829435      17.26918446     -18.78325939
C       18.26925918      19.78044886     -21.98773590
S       18.46606764      18.50688171     -17.45713840
H       19.24536376      16.44780568     -18.45761618
S       19.32823263      17.90419561     -20.32109244
H       19.29610159      19.91853930     -22.32728153
H       19.74553487      20.68779143     -16.13036043
C       20.18592831      18.81927157     -17.15271246
C       20.52441926      19.99979657     -16.45978283
N       21.10190640      17.94491805     -17.60486154
C       21.87098765      20.27495322     -16.24306791
H       22.16446864      21.18885824     -15.72534833
C       22.40130963      18.23538072     -17.38866294
C       22.83855428      19.37879902     -16.71944528
H       23.11898736      17.50971027     -17.77982176
H       23.90353067      19.56395851     -16.58475501
