28
Lattice="30.3924852 0.0 0.0 0.0 30.3924852 0.0 0.0 0.0 30.3924852" Properties=species:S:1:pos:R:3 dft_energy_ryd=-240.85548012 molecule_idx=1885 crystal_idx=1629 pbc="F F F"
H       11.43798705      14.60139498     -16.55296948
H       11.71211069      13.50432461     -15.17668706
H       12.10584328      16.62281103     -15.14898896
C       12.19418160      13.99131245     -16.03640470
H       12.32264529      15.51629753     -13.75936250
H       12.55223633      13.21599047     -16.72858165
C       12.82541613      15.97716334     -14.61859720
H       13.29602314      16.21121794     -17.30910879
C       13.34122549      14.90771424     -15.58621259
H       13.64152364      16.60062159     -14.23355817
C       14.01728586      15.55256741     -16.79983505
H       14.36012853      14.78885534     -17.51077220
S       14.53181088      13.74308552     -14.73226854
H       14.87989522      16.16203636     -16.49583093
O       15.22567093      15.83687062     -12.32440712
C       15.92360888      14.77879138     -14.41246344
C       16.05271420      15.66239187     -13.21767668
H       16.48251344      13.49294881     -16.72269009
C       17.07269345      14.81566798     -15.14575565
H       17.27310698      17.42312233     -13.40251273
C       17.35987812      14.06704980     -16.39935897
C       17.42841327      16.33984561     -13.29669814
H       17.66607177      14.76026557     -17.19966809
H       17.97478512      16.18319574     -12.35710017
C       18.11372839      15.72127348     -14.52752394
H       18.20524751      13.37630330     -16.24486052
H       18.45422948      16.47209542     -15.25826979
H       19.00721176      15.13297162     -14.26002345
