18
Lattice="29.07911664 0.0 0.0 0.0 29.07911664 0.0 0.0 0.0 29.07911664" Properties=species:S:1:pos:R:3 dft_energy_ryd=-291.69173121 molecule_idx=1911 crystal_idx=1653 pbc="F F F"
O        9.96202183      14.94712383     -14.20640259
C       11.07843944      14.58563305     -14.50162250
O       11.30759072      13.45285819     -15.40860563
C       12.42837077      14.99379681     -14.18544677
N       12.65546164      13.21535851     -15.60191954
N       12.85913861      15.99675146     -13.39016038
N       13.26154010      14.12967988     -14.87691715
N       14.14144619      16.20521947     -13.24204492
C       14.64851410      14.28484506     -14.74818105
C       15.03744998      15.36374314     -13.91189366
H       15.22174509      12.61829086     -15.99658862
C       15.57152408      13.44056726     -15.37501039
C       16.42097302      15.58993041     -13.73928741
H       16.72407125      16.42383595     -13.10632288
C       16.92520675      13.68318653     -15.16761342
C       17.34577189      14.76144611     -14.35930684
H       17.66633695      13.03224535     -15.63106871
H       18.41100016      14.94209074     -14.21821022
