23
Lattice="27.71669124 0.0 0.0 0.0 27.71669124 0.0 0.0 0.0 27.71669124" Properties=species:S:1:pos:R:3 dft_energy_ryd=-209.98838434 molecule_idx=1958 crystal_idx=1691 pbc="F F F"
H       10.54026320      13.67280951     -14.52661411
C       11.53818255      13.32263454     -14.81520821
H       11.60625933      12.24183665     -14.62741624
H       11.70123679      13.50815871     -15.88909809
N       12.19881539      15.29499043     -13.56652731
N       12.51239419      14.01911922     -13.98598146
H       13.00661050      11.74867490     -12.62539435
N       13.21559074      15.92861580     -13.15586271
C       13.96430544      13.92045815     -14.22657919
H       14.04931919      15.14296415     -15.77483623
C       14.09469475      11.90109265     -12.63732935
O       14.27737172      14.20795909     -15.60829797
H       14.25414308      11.88482366     -14.80301678
H       14.34803093      12.53349497     -11.77458282
C       14.41250083      15.03431969     -13.25484183
H       14.51336727      14.58063526     -12.25287052
C       14.54082434      12.53025477     -13.95893921
H       14.58541347      10.92870119     -12.49554335
H       15.63706030      12.61895789     -14.00056956
H       15.61151924      16.24626660     -14.60888059
C       15.68649445      15.78130093     -13.61673140
H       15.87619128      16.57261866     -12.88028142
H       16.54340810      15.09330965     -13.62859439
