11
Lattice="20.31032556 0.0 0.0 0.0 20.31032556 0.0 0.0 0.0 20.31032556" Properties=species:S:1:pos:R:3 dft_energy_ryd=-124.61276345 molecule_idx=1982 crystal_idx=1711 pbc="F F F"
H        7.71102397      10.84674464     -10.93811100
C        8.71253095      10.48722332     -10.72955765
H        9.24057063       9.08573282     -12.41978625
H        9.37694094      11.48787584      -8.80070255
C        9.49410296       9.58400537     -11.48805752
C        9.51544432      10.82966873      -9.65035233
N       10.68025419      10.13732969      -9.81045007
N       10.69834279       9.36555550     -10.92506993
N       11.76710306      10.20246067      -8.92794220
H       11.88124151       9.27725830      -8.49962263
H       12.60476401      10.37846441      -9.49266712
