40
Lattice="50.81632416 0.0 0.0 0.0 50.81632416 0.0 0.0 0.0 50.81632416" Properties=species:S:1:pos:R:3 dft_energy_ryd=-462.44210668 molecule_idx=1985 crystal_idx=1714 pbc="F F F"
H       20.18733049      27.21256013      22.44835711
H       21.00414261      25.20915619      21.05620680
C       21.23354820      26.94377358      22.30794236
C       21.66181497      25.89828251      21.58476039
H       21.97807719      28.64670835      23.49515410
C       22.34762821      27.80933173      22.89225940
H       22.53531029      28.97653286      21.04962128
C       23.17595483      25.76919932      21.49588135
C       23.18572639      28.32130466      21.64422819
C       23.29685187      26.90004800      23.62071080
H       23.28137387      27.15382913      19.78320551
H       23.51615051      24.88304111      20.94901942
C       23.67198736      27.10562175      20.80822864
C       23.73471744      25.83316925      22.89401757
S       23.98713675      27.09351781      25.22503561
H       24.03303209      28.91620122      22.01138079
C       24.71441942      25.03492462      23.58816433
H       24.76825193      27.07759774      20.75708419
C       24.95837818      25.65186435      24.95152335
O       25.31586592      24.01028260      23.20735289
O       25.48526506      26.79084330      27.59377808
C       25.84274772      25.14926155      25.84960255
H       26.03287905      23.72353324      30.04404678
C       26.08671156      25.76620128      27.21296157
H       26.76809380      21.88492976      28.78974511
S       26.81398915      23.70760808      25.57609028
C       27.06641354      24.96796172      27.90710833
C       27.12914362      23.69550415      29.99290234
H       27.28498047      25.91808987      29.85211156
H       27.51975711      23.64730185      31.01792038
C       27.50427403      23.90107790      27.18041510
C       27.61539951      22.47982632      29.15689770
C       27.62517107      25.03192658      29.30524963
H       28.26581052      21.82459304      29.75150970
C       28.45349769      22.99179417      27.90887158
H       28.82304871      22.15441755      27.30597688
C       29.13931601      24.90284339      29.21636551
C       29.56757770      23.85735232      28.49318354
H       29.79698836      25.59197479      29.74491910
H       30.61380049      23.58856576      28.35276879
