48
Lattice="43.75843668 0.0 0.0 0.0 43.75843668 0.0 0.0 0.0 43.75843668" Properties=species:S:1:pos:R:3 dft_energy_ryd=-493.20513707 molecule_idx=2037 crystal_idx=1757 pbc="F F F"
H       18.04676350      23.22685371      28.97708328
H       18.37528048      22.58757226      31.34813644
H       18.82892281      23.18049983      26.61976419
C       18.92143923      22.64770484      29.27868704
C       19.10448038      22.29048433      30.59382783
H       19.57717464      23.09769477      24.26324267
C       19.71187117      22.61447235      26.92607488
C       19.87158490      22.27337186      28.27583514
H       20.09758260      23.24351873      18.06257659
C       20.24801474      21.52985702      30.98588516
S       20.24611333      22.96612019      21.07883215
H       20.37691457      21.25665980      32.03358478
C       20.46395092      22.54085173      24.57149083
C       20.64999025      22.23451191      25.94694330
H       20.84528144      23.10623844      15.72498283
C       20.99738557      22.71769783      18.38500943
C       21.03730480      21.50683995      28.67693278
C       21.18365380      21.14813378      30.05314154
C       21.25346392      22.47943194      19.71521397
C       21.38436690      22.11557571      23.62673450
C       21.38084283      22.24691595      22.19954840
H       21.62833568      23.08350881      13.39021650
C       21.73593394      22.55445519      16.03467482
C       21.82853682      21.48191775      26.35524053
C       21.92970149      22.27887853      17.39824342
C       21.98257817      21.14022363      27.70895197
H       22.05790579      20.56424387      30.34701875
C       22.44634516      21.76950926      20.13977083
C       22.50777883      22.50689181      13.68287274
C       22.46752889      21.66849250      21.56934247
C       22.56515093      21.38507453      24.04988408
C       22.66696335      22.16532912      15.06186220
C       22.78524771      21.08485362      25.37405314
H       22.85686012      20.56081030      28.01441798
C       23.12180751      21.54887371      17.80871334
H       23.32459382      22.42380151      11.70559809
C       23.34441372      21.30588138      19.19139359
C       23.44870440      22.13821785      12.75048801
S       23.59285981      20.93321125      22.68925762
H       23.66833635      20.52977879      25.69339687
C       23.84335006      21.41596443      15.46482655
C       24.03077308      21.12018417      16.82191094
H       24.23553664      20.75698802      19.50098559
C       24.59877825      21.38789654      13.14264855
C       24.78557219      21.03222355      14.45785999
H       24.91586116      20.55745367      17.12814913
H       25.33543761      21.10545437      12.38996855
H       25.66707510      20.46322433      14.75907543
