26
Lattice="37.93766004 0.0 0.0 0.0 37.93766004 0.0 0.0 0.0 37.93766004" Properties=species:S:1:pos:R:3 dft_energy_ryd=-480.93048881 molecule_idx=2075 crystal_idx=1790 pbc="F F F"
S       15.96997847      21.48436227     -18.75179031
H       16.06165143      24.19440191     -17.76426054
H       16.85808864      19.18844654     -19.05989562
N       17.00458687      23.92537774     -18.02824521
C       17.13323464      20.20035305     -18.77909653
C       17.24193152      22.57546027     -18.21490726
H       17.73852599      24.39202180     -17.49962093
H       17.73020930      14.66467908     -17.54053600
S       17.76796027      16.48422885     -19.79019194
C       18.36660740      20.66935325     -18.39791723
N       18.42353048      22.01839617     -18.07566112
N       18.60103674      15.18599495     -17.51424466
H       18.85741853      17.74177939     -21.62715953
C       18.97187277      15.86026754     -18.66208401
C       19.05659513      17.17583284     -20.72356986
H       19.37133173      14.70539744     -17.05395077
H       19.38010389      18.77223529     -18.36552505
C       19.60844114      19.84353522     -18.34349493
N       20.21410500      16.15296041     -18.96847671
H       20.21201164      20.08706084     -17.46010764
C       20.26725474      16.90238946     -20.13648466
S       20.64684169      20.23399542     -19.84598302
H       21.51609369      17.67604851     -21.69983774
C       21.57192299      17.40990011     -20.63793768
S       22.18252050      18.91022805     -19.70287566
H       22.37152033      16.67066929     -20.48152114
