24
Lattice="31.30345008 0.0 0.0 0.0 31.30345008 0.0 0.0 0.0 31.30345008" Properties=species:S:1:pos:R:3 dft_energy_ryd=-466.84872796 molecule_idx=2085 crystal_idx=1800 pbc="F F F"
O       12.53719909      14.27689139     -18.32663124
O       12.80341357      16.44866653     -18.65201151
N       12.97927826      15.37937322     -18.08906556
H       13.63696642      17.43265861     -16.67225093
O       13.86832595      15.37030065     -16.91329537
C       14.42629397      16.67457089     -16.60692394
O       14.61682350      15.51241032     -14.34198354
H       14.84663493      17.52194019     -14.63689140
C       15.05727471      16.58617956     -15.17116414
H       15.23373581      13.83416472     -15.45714395
H       15.46372847      13.75568427     -13.67055507
C       15.52123875      14.40017811     -14.55545688
H       15.53819678      16.64726410     -18.51424450
C       15.64744970      16.97806214     -17.47511415
H       15.86804200      18.06315398     -17.45178395
C       16.57368877      16.36867599     -15.45557615
O       16.72372635      16.22333618     -16.87962586
C       16.89983202      15.03403496     -14.76685831
H       17.20332903      17.19132708     -15.07832442
O       17.54039436      15.40577713     -13.50919566
H       17.58196127      14.42653643     -15.37341258
N       18.19174221      14.27689892     -12.83427346
O       18.13174028      13.18674677     -13.38154579
O       18.71817436      14.61435842     -11.79586220
