30
Lattice="38.297727720000005 0.0 0.0 0.0 38.297727720000005 0.0 0.0 0.0 38.297727720000005" Properties=species:S:1:pos:R:3 dft_energy_ryd=-266.18103937 molecule_idx=2119 crystal_idx=1830 pbc="F F F"
H       16.66425768      17.02839440      19.06645749
H       16.67514611      21.27761370      19.22521096
H       17.41357575      18.21779192      20.04722550
H       17.41819614      20.08211457      18.24678729
N       17.52239437      17.49042048      19.34566157
N       17.53102494      20.80979988      18.94781074
H       17.72749600      16.14839321      17.07039230
H       17.74122441      22.15351778      21.22113161
C       18.47783520      17.71962221      18.35426135
C       18.48390815      20.57672452      19.93994421
C       18.49303689      16.91885995      17.19775606
C       18.50276867      21.37848162      21.09574037
H       18.65013453      15.81855993      14.83978358
H       18.66389805      22.48095662      23.45238416
C       19.48142816      18.70787021      18.54683533
C       19.48297606      19.58306277      19.74918747
C       19.50761830      17.05401361      16.23809348
C       19.51571500      21.23932339      22.05625983
N       19.54883119      16.19828213      15.12634568
N       19.56066928      22.09621837      23.16686457
H       20.09012758      16.54769416      14.33986924
H       20.10016825      21.74560757      23.95417421
C       20.48837338      19.46956236      20.72131885
C       20.48806257      18.81734770      17.57562643
C       20.51970988      18.01336863      16.43675720
C       20.52313959      20.27454807      21.85938513
H       21.25765825      18.71043112      20.57205454
H       21.26083422      19.57285044      17.72615193
H       21.31193848      18.12537019      15.69480467
H       21.31425074      20.15959627      22.60212183
