18
Lattice="24.5855736 0.0 0.0 0.0 24.5855736 0.0 0.0 0.0 24.5855736" Properties=species:S:1:pos:R:3 dft_energy_ryd=-244.36984189 molecule_idx=2114 crystal_idx=1826 pbc="F F F"
H        9.64898972      12.52450438     -12.15095099
H       10.10301709      13.74362766     -13.37445580
C       10.48324710      13.10253677     -12.56412420
O       10.56884646      14.62874313     -10.61933285
C       11.11636586      13.99007248     -11.49436445
H       11.58051970      11.87876655     -14.07233928
C       11.63970351      12.23116655     -13.02726905
O       11.69094662      11.11095688     -12.12636177
O       12.49186463      14.00136717     -11.66737079
C       12.85004993      13.17897545     -12.83611961
H       12.90897279       9.61430951     -11.46312912
H       12.97453168      13.85447879     -13.69568123
C       12.98009491      10.46206053     -12.15766514
H       13.19293904      10.08886510     -13.17769629
H       13.83220015      11.82018848     -10.70533417
C       14.04718259      11.44711046     -11.71936792
O       14.09043968      12.56737119     -12.64778888
H       15.05133150      11.00614177     -11.75189143
