14
Lattice="24.84578124 0.0 0.0 0.0 24.84578124 0.0 0.0 0.0 24.84578124" Properties=species:S:1:pos:R:3 dft_energy_ryd=-212.63846146 molecule_idx=2116 crystal_idx=1828 pbc="F F F"
O       10.66319898      11.42968663      -9.49528935
H       10.25148342      13.22291390     -10.41283125
C       10.83834202      12.27527662     -10.36637186
C       11.84898491      12.13003328     -11.45827616
N       11.88467947      13.11214977     -12.37822721
H       12.08829741      14.85784032     -14.23372883
H       12.64645205      10.24263328     -10.75463103
C       12.71365987      11.02027781     -11.51901641
C       12.79497097      12.96755591     -13.36036773
C       12.83193021      14.04223728     -14.39813050
O       13.60434348      14.03523429     -15.35107718
N       13.63120490      10.87834097     -12.49242270
C       13.66399567      11.85989459     -13.41186310
H       14.39222524      11.77969395     -14.22153539
