13
Lattice="22.4359632 0.0 0.0 0.0 22.4359632 0.0 0.0 0.0 22.4359632" Properties=species:S:1:pos:R:3 dft_energy_ryd=-202.24928947 molecule_idx=2128 crystal_idx=1839 pbc="F F F"
O        9.10385958       8.95393909     -11.21627890
S       10.12759233      11.21886816     -10.45726387
C       10.07670659       9.65779786     -11.42992226
H       10.73797536      13.72168021      -9.61936527
H       10.97850499       8.37135652     -12.85641161
C       11.19020015       9.33766295     -12.38357448
C       11.59272250      12.18864180     -10.92643694
H       11.29318501      10.13482213     -13.13165183
C       11.68785338      13.45776512     -10.10044215
H       12.02663098      14.27129459     -10.75490036
H       12.14695670       9.31351079     -11.84382142
O       12.41075050      11.88467222     -11.78255431
H       12.44842632      13.30935296      -9.31874098
