38
Lattice="37.930727520000005 0.0 0.0 0.0 37.930727520000005 0.0 0.0 0.0 37.930727520000005" Properties=species:S:1:pos:R:3 dft_energy_ryd=-481.98185545 molecule_idx=2144 crystal_idx=1853 pbc="F F F"
H       15.04686368      20.21077154     -16.12510452
H       15.15858196      21.76113261     -20.51783843
H       16.16582965      20.65404495     -19.53741322
H       16.29244670      20.41046881     -17.40026848
C       16.11139823      20.39848310     -16.31798616
C       16.16101643      21.59369622     -20.10327948
H       16.39780643      21.36798683     -15.88719958
H       16.42759184      22.42715537     -19.43910057
S       17.03386159      19.04905697     -15.52515157
S       17.29669476      21.50237308     -21.51585598
H       18.27525476      16.68877460     -16.51684509
C       18.71606324      19.42232479     -16.15170412
N       18.80794502      20.24803150     -18.43388299
C       18.88661582      21.29147756     -20.62319054
H       18.95665287      20.47256335     -15.93845631
H       18.53669469      19.15613215     -22.34853749
C       18.84870394      19.16764022     -17.62739946
H       19.06994044      22.17490260     -19.99681907
C       18.92667598      20.05828020     -19.76328724
C       19.00080365      17.86933045     -18.16424880
H       18.85752815      15.75258301     -17.93064800
C       19.07877059      18.75976857     -20.30021398
H       19.39081487      18.77131714     -15.57890458
H       18.97082509      17.45488274     -21.98901950
C       19.04084082      16.63591090     -17.30429766
N       19.11952782      17.67940563     -19.49348598
C       19.21142781      18.50526101     -21.77571911
H       19.65219828      21.23869107     -21.41060818
S       20.63080314      16.42511788     -16.41160400
S       20.89358842      18.87839984     -22.40232548
H       21.49988622      15.50031986     -18.48837905
H       21.52967211      16.55948577     -22.04028122
C       21.76645781      16.33378517     -17.82419916
C       21.81609527      17.52900233     -21.60950351
H       21.63501959      17.51701660     -20.52721856
H       21.76165879      17.27343561     -18.39007580
H       22.76888050      16.16634793     -17.40962866
H       22.88061307      17.71669225     -21.80236835
