14
Lattice="22.390452 0.0 0.0 0.0 22.390452 0.0 0.0 0.0 22.390452" Properties=species:S:1:pos:R:3 dft_energy_ryd=-306.59667264 molecule_idx=2152 crystal_idx=1859 pbc="F F F"
O        8.72906705      11.32072735     -11.12036324
O        9.11411672      10.04368680     -12.86515869
N        9.52049999      10.76833194     -11.95128406
H        9.67070288      11.91354216      -9.77348512
N       10.67817619      11.92292321      -9.55996632
C       10.93353902      10.96749045     -11.76954325
H       11.05093052      12.11600358      -8.63707556
O       11.32954985      10.78111288     -14.04559084
C       11.48051514      11.43834421     -10.52859944
N       11.78436796      10.69294114     -12.90136054
N       12.81090715      11.41891941     -10.30860166
O       13.00123244      10.40454655     -12.67056317
H       13.20397250      11.89589392      -9.50558301
H       13.38563745      11.00875130     -11.05604002
