20
Lattice="23.140116719999998 0.0 0.0 0.0 23.140116719999998 0.0 0.0 0.0 23.140116719999998" Properties=species:S:1:pos:R:3 dft_energy_ryd=-223.21374612 molecule_idx=2150 crystal_idx=1857 pbc="F F F"
H        9.32593818      11.19721332     -11.33226221
H       10.11884507       9.76776098     -12.94528116
H       10.92293467      13.43644730     -10.65734084
C       11.29238905      13.04164594     -11.61515517
H       10.30946530       9.81313489     -10.75171881
H       10.51988512      13.22493826     -12.38670672
N       10.95954927      10.07768656     -13.41860538
H       11.12350032       9.80215980     -14.38235469
H       10.17809968      11.28920101      -9.77148229
C       10.24628057      10.91064464     -10.80028651
C       11.49609772      11.50631028     -11.45488135
C       11.80882582      10.98754583     -12.86076556
O       12.70314567      12.04144621      -9.35315851
H       12.94538942      12.94735775      -9.62739663
O       12.50808469      13.73337260     -11.91809956
C       12.74200819      11.25552715     -10.55336987
H       12.75776494      10.20336064     -10.23419586
O       12.79781936      11.42113263     -13.49116914
H       12.92248559      13.20852280     -12.64421420
H       13.65223541      11.46533542     -11.13229949
