16
Lattice="23.928201360000003 0.0 0.0 0.0 23.928201360000003 0.0 0.0 0.0 23.928201360000003" Properties=species:S:1:pos:R:3 dft_energy_ryd=-240.55609747 molecule_idx=2170 crystal_idx=1876 pbc="F F F"
H        9.60444149      12.41054163     -13.60530718
S       10.02948250      11.01110518     -11.73926360
C       10.40224827      12.37832979     -12.85023330
H       10.44423587      13.34681206     -12.32474287
H       10.92657122      10.79646213      -9.55220564
C       11.31226033      11.29387457     -10.45092028
H       11.33291278      12.37826236     -10.25445923
O       11.93089289      13.58367844     -14.67242942
S       11.96288440      12.30250576     -13.88285110
C       12.67187559      10.77276177     -10.81927989
H       12.67769299      13.38643202     -11.84783093
H       12.98885509       9.83847079     -10.35265766
C       13.15676683      12.60780592     -12.46130154
C       13.49274715      11.36786923     -11.69927858
H       14.02596992      13.04075647     -12.97186124
H       14.44934027      10.89350948     -11.92455513
