86
Lattice="58.88450736 0.0 0.0 0.0 58.88450736 0.0 0.0 0.0 58.88450736" Properties=species:S:1:pos:R:3 dft_energy_ryd=-907.37736807 molecule_idx=2176 crystal_idx=1882 pbc="T T T"
O       24.34638294      31.14393834      25.50549241
H       25.17423863      27.35845818      23.06610690
H       25.90114890      30.35915433      23.08772006
H       25.44826378      29.74495023      27.51836621
C       25.54135585      30.94162947      25.78187468
H       25.62455811      31.46299548      27.85996219
H       24.43186598      28.42519531      24.08402647
H       25.58344094      31.93374733      23.44217008
N       25.32237601      28.21740163      23.61541496
C       25.99995870      30.64603239      27.21473611
N       26.31988629      31.21801170      23.48187483
N       26.54037385      30.96025427      24.85417374
O       26.10804336      25.60589487      24.26537331
H       26.45670908      27.82502363      27.26984499
N       26.27298742      27.87217496      24.60680533
H       26.51262903      34.67358925      30.88383575
H       26.75079047      33.87120301      28.51268243
C       26.66919787      26.58160659      24.79429124
H       27.19666061      29.29041284      29.17256575
C       27.09423951      33.77954857      30.65551480
H       26.90741374      28.61232018      24.91358732
C       27.22390415      33.33513613      29.33598711
H       27.49737727      30.80499824      25.16891078
N       27.44225347      30.41543313      27.36107211
H       27.71342018      25.59875903      26.38985006
C       27.51482575      27.91559460      27.56207815
H       27.70707544      27.13773423      28.32831401
C       27.76800968      29.26904814      28.22380004
H       27.94112114      32.40799352      26.93684373
C       27.71318806      33.05825815      31.67903875
H       27.63143789      33.37496697      32.71939399
C       27.91226356      26.42996503      25.68575006
C       27.99407057      32.19147576      29.08232903
C       28.20543133      31.64118407      27.68100989
N       28.31005176      27.67783635      26.34557363
C       28.43069805      31.89789074      31.35141378
N       28.57998655      31.48754766      30.07436371
H       28.82028024      29.34090880      28.51581826
H       28.63881561      31.21581929      33.38807517
H       28.72333063      26.09422767      25.02162443
H       28.90091907      29.97203694      32.14546533
H       29.27416141      31.40124954      27.56769265
C       29.09334857      31.02318276      32.40540553
C       29.76922508      27.83930660      26.50339820
H       29.58211395      27.47134083      31.34054540
H       29.96323957      28.89067829      26.76126281
H       30.13771534      32.76665132      33.88984704
H       30.22382493      27.64364619      25.52141903
H       30.04419392      29.52626861      30.38853948
N       30.27793849      27.37592315      28.83587688
C       30.42936053      26.96505632      27.55937359
N       30.55221571      31.18605664      32.56293166
C       30.64980681      27.22608829      31.22907560
C       30.86148280      26.67234758      29.82938230
C       30.94888674      32.43296290      33.22492150
H       31.23008398      25.48658451      26.19374526
C       31.14689069      25.80421571      27.23355785
H       30.91012684      26.46025074      31.97565554
C       31.09580159      29.59669640      30.68319475
H       31.15807699      31.72827422      30.58147516
C       31.34877546      30.94934506      31.34708008
H       31.14682128      33.26577790      32.52235044
N       31.41855117      28.44923961      31.54573294
H       31.36465168      28.05777473      33.73843058
C       31.63273494      25.52882062      29.57763658
H       31.95723116      30.24979243      33.98868460
C       31.76437878      25.08374259      28.25850284
H       31.66963308      29.57573086      29.73593165
C       32.19278060      32.28006176      34.11527161
H       32.10535044      24.99385318      30.40172151
H       32.34653335      24.18979505      28.03180602
N       32.59182402      30.98962450      34.29629760
H       32.40660763      31.03872860      31.64076469
O       32.75385908      33.25470608      34.64633506
N       32.32190663      27.89775760      34.05015658
N       32.54467421      27.63759013      35.42168912
C       32.86009546      28.21231378      31.68873205
N       33.54668009      30.64155686      35.28259811
H       33.27792618      26.91838799      35.45889520
H       34.43427631      30.43264360      34.80898982
H       33.23148362      27.39533103      31.04128456
C       33.31865647      27.91129897      33.12002893
H       33.41475939      29.11221782      31.38650779
H       32.96821943      28.49412389      35.81547315
H       33.69915590      31.49988646      35.83177853
O       34.51326335      27.70308407      33.39422761
