16
Lattice="26.32420728 0.0 0.0 0.0 26.32420728 0.0 0.0 0.0 26.32420728" Properties=species:S:1:pos:R:3 dft_energy_ryd=-248.61260204 molecule_idx=2208 crystal_idx=1909 pbc="F F F"
O       10.72431358      11.57883359     -13.24241465
N       11.18343090      12.85455538     -13.46470544
N       11.75339499      10.74516047     -12.80772937
H       11.74487950      15.13178155     -13.97040524
C       12.47308272      12.82562433     -13.17653631
C       12.83523467      11.50071112     -12.75945935
N       12.75792877      15.11626222     -13.86748330
H       14.12106977      16.36467809     -13.18290855
H       13.89944666      16.44190489     -14.80573367
H       14.53020455      11.52456449     -11.46249816
C       13.35835338      14.02144930     -13.30842003
N       13.39754505      16.37431800     -13.91297013
C       14.15908649      10.96629910     -12.33190953
H       14.06911522       9.90235584     -12.08380532
O       14.54696606      13.99986923     -12.94136107
H       14.89731135      11.10299609     -13.13302346
