18
Lattice="24.706284120000003 0.0 0.0 0.0 24.706284120000003 0.0 0.0 0.0 24.706284120000003" Properties=species:S:1:pos:R:3 dft_energy_ryd=-238.68887961 molecule_idx=2236 crystal_idx=1934 pbc="F F F"
H        9.61074569      13.26508442     -11.77092197
H        9.94717787      12.06511982     -13.86142778
C       10.62333189      13.29715883     -12.20870082
H       10.70049631      14.22339560     -12.79773597
H       10.73644106      11.14854990     -12.53791209
C       10.76317677      12.08413452     -13.12630784
H       11.39091673      14.16151635     -10.37086525
H       11.59873375      12.38524515     -10.49117581
C       11.62397956      13.33503636     -11.05585404
O       11.97046445      12.09730782     -13.93062985
O       12.98754697      13.59444336     -11.47983680
C       13.13192973      11.81081343     -13.23945089
C       13.61721898      12.52361908     -12.08407792
H       13.88787374      10.16843687     -14.50643475
C       14.01109770      10.83867420     -13.66178175
C       14.85226542      12.07302394     -11.67258514
S       15.43212198      10.81344942     -12.69177882
H       15.44252550      12.44303493     -10.84056651
