17
Lattice="28.016853479999998 0.0 0.0 0.0 28.016853479999998 0.0 0.0 0.0 28.016853479999998" Properties=species:S:1:pos:R:3 dft_energy_ryd=-340.78493186 molecule_idx=2267 crystal_idx=1963 pbc="F F F"
O       11.60327488      13.87971595     -12.26108367
H       12.70082155      16.14614614     -12.11568760
C       12.61223800      14.22038515     -12.87382182
O       12.80416351      12.11287885     -13.94911108
H       12.90827148      10.25136754     -14.76703390
N       13.17003794      15.49680833     -12.74662314
H       13.41397758      11.58162095     -15.88553380
C       13.46474952      11.18804556     -14.86204165
C       13.37201840      13.32007924     -13.83795021
C       14.31372034      15.86305680     -13.42751028
H       14.51770808      11.06476613     -14.57724153
N       14.45411145      13.63303305     -14.50431149
N       14.94955563      17.01746967     -13.38496465
C       14.91025361      14.90151457     -14.28130539
O       16.02943425      16.87796313     -14.22746093
N       16.00875661      15.45497876     -14.82501203
O       16.88943525      15.11269823     -15.59583480
