25
Lattice="32.91952104 0.0 0.0 0.0 32.91952104 0.0 0.0 0.0 32.91952104" Properties=species:S:1:pos:R:3 dft_energy_ryd=-310.37689112 molecule_idx=2275 crystal_idx=1970 pbc="F F F"
O       13.31057943      17.30114741     -19.24641192
H       13.19778321      17.26945225     -18.24489913
H       14.32743904      18.48610316     -16.56379611
N       14.42711970      17.53822335     -16.92938131
H       14.73912080      16.94750564     -16.15323715
C       14.64840598      17.48265476     -19.38783069
C       15.40509918      17.49803078     -18.04091992
H       15.64594833      15.34178874     -18.12908289
O       15.20766121      17.58417319     -20.46999384
H       15.90995771      14.33659939     -16.04647354
H       16.07096020      18.37523380     -18.04398434
C       16.28458237      16.22509744     -17.97351559
H       16.31526502      13.35789568     -14.02828154
C       16.66834316      15.07069158     -15.75997334
H       16.98693162      16.27317536     -18.81705716
C       17.00830209      16.09868104     -16.65391198
O       16.99034604      13.93336129     -13.62279036
C       17.29328203      14.93963732     -14.51475471
C       17.98969889      17.02085685     -16.26539808
H       18.27134568      17.83384082     -16.93560486
C       18.28152257      15.87036833     -14.13693474
C       18.61527574      16.90338180     -15.02017650
O       18.87351621      15.70277422     -12.90275892
H       19.38075413      17.62282967     -14.72129443
H       19.55551318      16.39124963     -12.79629042
