19
Lattice="25.146261 0.0 0.0 0.0 25.146261 0.0 0.0 0.0 25.146261" Properties=species:S:1:pos:R:3 dft_energy_ryd=-235.55260467 molecule_idx=2286 crystal_idx=1979 pbc="F F F"
O        9.97959444      12.90014971     -11.98693799
H       10.66557877      15.31424996     -11.72383073
H       10.19055226      11.38431717     -13.07655888
H       10.81430009       9.84357801     -13.70662609
N       10.97085946      10.80089115     -13.40320085
C       11.14332642      13.34975086     -12.04418251
N       11.43310549      14.66354476     -11.85119619
H       12.37408560      14.97729103     -12.08954075
C       12.20679299      11.08104614     -12.90454300
C       12.36899703      12.47388606     -12.28831638
O       13.16732404      10.29351126     -12.97059720
H       13.39987598      13.22874860     -10.43636106
N       13.59167287      13.28140572     -12.59658151
C       13.53214600      12.59515019     -11.31673311
H       14.10914942      12.99518677     -14.60913717
H       14.12203562      11.68058466     -11.20349987
C       14.54526878      12.81524258     -13.61713277
H       14.79539949      11.74967730     -13.52031100
H       15.44884170      13.43069446     -13.51361932
