14
Lattice="23.50881036 0.0 0.0 0.0 23.50881036 0.0 0.0 0.0 23.50881036" Properties=species:S:1:pos:R:3 dft_energy_ryd=-219.32938748 molecule_idx=2283 crystal_idx=1977 pbc="F F F"
H        9.16370479      10.34922005      -9.37804474
O        9.79078341      10.15659010     -11.59327994
O        9.92487409      10.96307828      -9.46290902
C       10.33695892      10.88232181     -10.77185538
H       11.17664107      12.00946875     -13.16741749
H       11.25168441      12.81152482     -10.73980644
C       11.52072144      11.78425804     -11.02684509
C       11.98507527      11.72153719     -12.47895267
H       12.25411437      10.69427038     -12.76599055
H       12.32915675      11.49632808     -10.33837986
C       13.16884447      12.62348744     -12.73393310
O       13.58092171      12.54271959     -14.04288953
O       13.71500967      13.34919650     -11.91252531
H       14.34209097      13.15658033     -14.12775228
