9
Lattice="16.884126000000002 0.0 0.0 0.0 16.884126000000002 0.0 0.0 0.0 16.884126000000002" Properties=species:S:1:pos:R:3 dft_energy_ryd=-172.69992897 molecule_idx=2301 crystal_idx=1993 pbc="F F F"
H        6.41520142       9.82717018      -8.26103207
O        6.91143137       7.25516567      -9.52641343
O        7.30540019      10.02844041      -7.89863923
C        7.88363406       7.73932300      -8.98201365
C        8.12110352       9.02170216      -8.21352861
C        9.42109491       7.45243512      -8.69969008
C        9.44993700       8.76338098      -7.97415295
O       10.22077440       6.57358227      -8.95533747
H       10.23670610       9.30408320      -7.45447550
