17
Lattice="25.208336159999998 0.0 0.0 0.0 25.208336159999998 0.0 0.0 0.0 25.208336159999998" Properties=species:S:1:pos:R:3 dft_energy_ryd=-253.4677537 molecule_idx=2313 crystal_idx=2003 pbc="F F F"
O       10.34645693      10.65758104     -10.94625093
H       10.54876571      13.18455233     -10.52650265
H       10.44357031       9.73710949     -11.25406746
C       11.25383741      12.82080324     -11.27120744
C       11.25947641      11.44946420     -11.60107184
H       12.15370717       9.87695056     -12.80727520
C       12.14845066      10.93544349     -12.54519046
C       12.14054144      13.66618522     -11.91400534
H       12.14361023      14.72899760     -11.67886498
C       13.05627160      11.79013740     -13.18655632
C       13.05541913      13.18469598     -12.87839721
O       13.90524533      11.25008252     -14.09076744
O       13.89817965      15.38140543     -13.26838071
C       13.99025958      14.05073194     -13.57835096
H       14.46630352      12.01467806     -14.43070407
H       14.57462049      15.83053168     -13.81802595
O       14.82983711      13.65520249     -14.41893372
