11
Lattice="20.454003359999998 0.0 0.0 0.0 20.454003359999998 0.0 0.0 0.0 20.454003359999998" Properties=species:S:1:pos:R:3 dft_energy_ryd=-205.53808358 molecule_idx=2318 crystal_idx=2007 pbc="F F F"
O        9.71723449       9.54811458      -8.55211103
H        9.32738415       8.32119350     -12.28984388
O        9.27393476       9.20002010     -11.85482041
H        9.95652852      11.60732293      -7.49749264
C       10.11122731      10.57302504      -9.08323560
H        9.84096217      11.47259008     -11.00040552
C       10.50018744       9.42613165     -11.28609854
O       10.24165659      11.76979944      -8.42266527
C       10.52294049      10.74462840     -10.53815320
O       11.44426130       8.65979553     -11.38577476
H       11.54110473      11.15480072     -10.56682112
