15
Lattice="21.98249172 0.0 0.0 0.0 21.98249172 0.0 0.0 0.0 21.98249172" Properties=species:S:1:pos:R:3 dft_energy_ryd=-285.44291727 molecule_idx=2328 crystal_idx=2015 pbc="F F F"
O        8.99608395      11.65639652     -12.90283814
H        9.04053493      11.31481207     -10.29833419
H        9.24476533       9.68239068      -9.61144136
C        9.75699603      10.48916162     -10.15281582
O       10.07899816       9.88826344     -11.45595056
S       10.21192819      10.90887665     -12.70364844
O       10.80949825      10.11586095     -13.74712771
H       10.89387465      10.88808737      -8.31456186
C       10.99030393      10.91294860      -9.40298416
O       11.25659821      11.99063841     -12.11525985
C       12.15835985      11.28632400      -9.94121536
C       12.43336642      11.44665820     -11.41383207
H       12.74380858      10.50697765     -11.89871604
H       12.98983527      11.53207370      -9.27706025
H       13.21383689      12.19931875     -11.58300280
