19
Lattice="26.960676120000002 0.0 0.0 0.0 26.960676120000002 0.0 0.0 0.0 26.960676120000002" Properties=species:S:1:pos:R:3 dft_energy_ryd=-284.63586892 molecule_idx=2338 crystal_idx=2023 pbc="F F F"
H       10.76668438      14.18859174     -12.16872525
C       11.77075643      14.25158546     -12.61059971
S       11.86373225      12.86482957     -13.79360720
H       11.83639706      15.19904721     -13.16894829
H       12.74226448      13.25402647     -10.95203172
H       12.69656323      15.02367423     -10.82066248
C       12.84986074      14.18730514     -11.52470516
H       13.10703004      12.69791711     -16.52374389
C       13.49862818      13.24441798     -14.47927542
H       13.58252131      14.32004586     -14.71284498
C       13.81800509      12.42347175     -15.73156910
O       13.67307403      11.00752355     -15.54304330
C       14.27060880      14.29913660     -12.08748671
H       14.40741345      15.20666109     -12.69795745
H       14.83807806      12.68906787     -16.05912682
S       14.79557927      12.90201646     -13.18000046
H       14.40122973      10.70414784     -14.96954507
H       15.02431013      14.30084657     -11.28791553
O       16.12817219      13.30659625     -13.75912017
