30
Lattice="40.32504 0.0 0.0 0.0 40.32504 0.0 0.0 0.0 40.32504" Properties=species:S:1:pos:R:3 dft_energy_ryd=-505.8157249 molecule_idx=2336 crystal_idx=2022 pbc="F F F"
H       18.02055440      16.67025749     -16.87867943
H       17.97118333      15.51788359     -18.22738045
H       18.02521180      17.31103000     -19.96811129
H       18.51942080      24.56557438     -22.28945471
C       18.64531972      16.10596210     -17.58928869
H       18.81604756      22.08557346     -21.45123178
H       18.82318280      26.00385899     -21.26820393
S       18.87278485      24.02779504     -19.95194111
C       19.02927816      17.56780410     -19.62498899
C       19.14372710      24.97530087     -21.48103830
H       19.19530981      21.67281206     -19.74458951
H       19.26513758      15.41232374     -17.00460019
C       19.36765850      22.39872154     -20.55059385
H       19.46613616      18.80168006     -21.35365918
C       19.50401566      17.03218390     -18.41482281
C       19.82856735      18.40540503     -20.40567832
H       20.37550279      22.93550824     -23.11181768
C       20.79653357      17.38024758     -17.99209950
S       20.87128340      25.08625955     -22.04238200
C       21.11949155      18.72686712     -19.96833389
C       21.13658899      23.34668228     -22.43025615
S       21.16546228      22.22765924     -20.96843617
H       21.17937500      16.97311635     -17.05391674
N       21.22370529      20.79996650     -21.73913518
C       21.60538135      18.22557917     -18.75619119
H       22.12992511      23.23760199     -22.88402092
S       22.21953816      19.68686583     -21.01139570
H       22.60944768      18.49247672     -18.42781949
O       22.66842795      18.80925823     -22.08161489
O       23.20267464      20.31461829     -20.12519151
