15
Lattice="26.517259439999997 0.0 0.0 0.0 26.517259439999997 0.0 0.0 0.0 26.517259439999997" Properties=species:S:1:pos:R:3 dft_energy_ryd=-264.13270072 molecule_idx=2383 crystal_idx=2061 pbc="F F F"
H       10.59137698      11.79512988     -13.98911897
O       10.37328537      11.61214685     -13.03353479
H       11.44102743      12.22677417     -11.42939693
N       11.29982123      12.45161508     -12.40922551
C       12.15886119      13.13706632     -13.19850518
O       12.02401122      13.07398129     -14.44725220
H       12.93525742      15.03203989     -12.62389306
H       13.24468245      13.76507262     -11.41341005
C       13.20729815      13.97298148     -12.49050023
C       14.62408194      13.76840977     -13.03805232
H       13.95737156      13.57605683     -14.99461536
N       14.74423627      13.82768521     -14.38776410
O       15.62582280      13.62153730     -12.30613006
O       16.00449907      13.51389958     -14.91703110
H       16.52563604      13.38287282     -14.07883929
