18
Lattice="24.217515000000002 0.0 0.0 0.0 24.217515000000002 0.0 0.0 0.0 24.217515000000002" Properties=species:S:1:pos:R:3 dft_energy_ryd=-197.11115921 molecule_idx=2402 crystal_idx=2080 pbc="F F F"
N        9.99566447      13.91765977     -10.40153228
N       10.57106439      12.82321608     -10.96311348
H       11.10192210      11.61771714     -12.25065813
H       11.89109056      13.53583037     -13.20571362
N       10.93809350      14.65058949      -9.82190540
H       11.72433728      12.30522905     -14.50790243
C       11.88613112      12.96437818     -10.68549531
N       12.12021615      11.54511782     -12.56933921
C       12.28897653      12.60166889     -13.61685046
H       12.89620856      11.03575302     -10.66458935
C       12.81230986      11.95317345     -11.26751217
N       12.16496910      14.07694822      -9.99815894
H       11.91264392       9.95019994     -13.94502648
C       12.50783879      10.19552214     -13.05853484
H       12.32626107       9.46329309     -12.26473128
H       13.35628176      12.69851591     -13.84751026
H       13.81416370      12.33950903     -11.49425727
H       13.57330812      10.20715931     -13.31865017
