32
Lattice="48.58167132 0.0 0.0 0.0 48.58167132 0.0 0.0 0.0 48.58167132" Properties=species:S:1:pos:R:3 dft_energy_ryd=-571.28653337 molecule_idx=2405 crystal_idx=2083 pbc="F F F"
H       19.11674459      23.42183072      20.63465649
H       19.17486031      25.06894966      21.29400250
H       19.52338947      23.68092977      22.34947591
C       19.65551614      24.07820851      21.33168566
C       21.11352460      24.15735918      20.99675878
S       21.69717394      23.95068232      19.36994608
C       22.17648897      24.42771897      21.82747888
S       22.19325378      24.79470836      23.54661702
H       23.13148529      24.09536681      29.27496751
C       23.36280170      24.20724067      19.80524804
C       23.44350691      24.45398108      21.15630861
S       23.72347089      24.85107522      26.41915037
C       23.96217624      24.74791653      23.68124068
H       24.08992590      25.08834748      30.39434246
C       24.10485440      24.17553765      29.77845087
H       24.20589987      23.31811337      30.45860350
H       24.35887203      23.31810365      18.10615869
C       24.45991264      24.17553279      18.78630646
H       24.47480228      25.08834262      18.17041000
C       24.60261994      24.74789224      24.88355065
S       24.84126701      24.85107522      22.14561181
C       25.12123584      24.45398594      27.40841957
C       25.20194105      24.20725038      28.75948014
H       25.43327203      24.09539596      19.28980925
S       26.37155213      24.79469379      25.01814031
C       26.38826349      24.42771412      26.73726387
S       26.86756395      23.95070175      29.19477723
C       27.45121330      24.15735918      27.56798883
C       28.90921204      24.07823280      27.23308138
H       29.04133385      23.68099778      26.21529113
H       29.38988244      25.06895452      27.27076940
H       29.44803217      23.42183557      27.93005225
