30
Lattice="46.39147128 0.0 0.0 0.0 46.39147128 0.0 0.0 0.0 46.39147128" Properties=species:S:1:pos:R:3 dft_energy_ryd=-379.06264097 molecule_idx=2449 crystal_idx=2120 pbc="T T T"
H       20.21187778      17.64038806      27.11935802
O       20.05298860      19.90267002      26.72334767
O       20.96322986      17.82149524      26.51451417
C       20.90417271      19.17075231      26.23594239
H       21.19797694      21.48755765      24.64153715
H       22.24735291      21.57742682      26.04984537
C       22.12606722      21.08544297      25.07331621
C       21.99864720      19.57591144      25.27742364
S       23.11826858      24.34228845      20.69762907
H       22.67138768      23.36535525      23.47382735
H       21.80269463      19.06709495      24.31877409
H       22.72990437      27.22220784      20.26702671
H       22.94673937      19.15009049      25.64234921
H       23.18289502      20.93761878      23.18633540
C       23.31896657      21.41423835      24.17194020
C       23.53954683      22.91892357      23.97997544
H       23.64458207      23.41023063      24.96019782
C       24.20689546      25.31027759      21.47074327
H       23.94278870      26.57002169      19.14127142
C       23.80232331      27.21044335      20.02390655
O       24.51153615      26.59476757      21.15101112
H       24.23181784      20.96874500      24.60465285
H       24.69833284      22.68397230      22.15150076
C       24.79611038      23.15747351      23.14057462
S       25.21911908      24.90275161      22.85837985
H       23.87835526      29.08397005      18.98438592
H       24.22776776      29.22262190      20.72824814
C       24.38050105      28.60104495      19.83553942
H       25.68138148      22.74227338      23.64620570
H       25.45668325      28.55285498      19.62115135
