30
Lattice="46.39147128 0.0 0.0 0.0 46.39147128 0.0 0.0 0.0 46.39147128" Properties=species:S:1:pos:R:3 dft_energy_ryd=-379.06264097 molecule_idx=2450 crystal_idx=2120 pbc="T T T"
H       20.92271081      17.82653907      26.75824271
H       20.69801258      23.63712067      22.73318836
C       21.99889301      17.77834910      26.54385464
H       22.15162630      17.15677215      25.65114592
H       22.50103880      17.29542400      27.39500814
S       21.16027498      21.47664244      23.52101421
C       21.58328368      23.22192054      23.23881944
H       21.68106122      23.69542175      24.22789330
H       22.14757622      25.41064905      21.77474121
O       21.86785791      19.78462648      25.22838294
C       22.57707075      19.16895070      26.35548751
H       22.43660536      19.80937236      27.23812264
C       22.17249860      21.06911646      24.90865079
H       22.73481199      22.96916342      21.41919624
C       22.83984723      23.46047048      22.39941862
C       23.06042749      24.96515570      22.20745386
H       23.19649904      25.44177527      23.19305866
H       23.43265469      27.22930356      20.73704485
H       23.64948969      19.15718621      26.11236735
H       24.57669943      27.31229910      22.06061997
H       23.70800638      23.01403880      22.90556671
S       23.26112548      22.03710560      25.68176499
C       24.38074686      26.80348261      21.10197042
C       24.25332684      25.29395108      21.30607785
H       24.13204115      24.80196723      20.32954869
H       25.18141712      24.89183640      21.73785691
C       25.47522135      27.20864174      20.14345167
O       25.41616420      28.55789881      19.86487989
O       26.32640546      26.47672403      19.65604639
H       26.16751628      28.73900599      19.26003604
