50
Lattice="40.68971172 0.0 0.0 0.0 40.68971172 0.0 0.0 0.0 40.68971172" Properties=species:S:1:pos:R:3 dft_energy_ryd=-608.94955274 molecule_idx=2485 crystal_idx=2151 pbc="F F F"
H       15.50907580      19.34219355      18.74204773
H       15.57311105      20.84853820      19.71359797
H       15.73197669      20.92705926      17.94276774
C       15.97909906      20.33443188      18.83185383
H       17.22081785      18.46791820      20.22762828
C       17.50325783      20.18549023      18.93372822
H       17.50539574      20.01053832      21.07680513
O       17.74124234      22.36702014      20.44345781
H       17.64140100      18.52132401      17.54844518
H       17.81956896      20.12912753      16.79831904
C       17.80305528      19.40091454      20.21504540
O       17.76684449      22.64929429      17.95885802
C       18.07886377      19.52487580      17.67645595
S       18.22664256      21.89137908      19.11924353
H       18.92067715      16.93701150      20.75225076
H       19.08669980      18.78250990      22.48459936
H       18.99191744      21.30528710      21.80345259
H       19.12057237      17.39685807      19.02350207
H       19.17448802      19.44665941      17.71163414
N       19.25994914      18.99981628      20.39164494
C       19.48430185      17.55602686      20.04293047
O       19.70275042      21.63467554      19.14259432
C       19.78387765      19.26249116      21.78463747
H       19.90412432      19.54114508      19.74723937
C       19.88404705      20.74326054      22.12606472
H       19.95920620      23.21230726      21.18613951
H       20.01212726      20.85158412      23.21170479
H       20.56095620      17.36138081      20.10856822
H       20.76036240      18.75550568      21.83404421
C       20.90934690      22.92052224      21.64772660
H       20.94963971      21.25833862      20.43922215
H       20.92093002      23.14666178      22.72142638
N       21.06062336      21.43617534      21.47627470
O       21.62405734      19.65482496      19.26458844
H       21.75060002      23.40683719      21.14521086
H       22.24335746      20.01042801      22.54453285
C       22.40626509      20.93848409      21.98386179
H       22.70579375      22.11246665      19.39861301
H       22.78380965      21.70386830      22.67780293
O       22.62688508      18.14182816      20.93704362
S       22.89420236      19.18672493      19.91279263
C       23.44343560      20.67258420      20.88740700
C       23.62956915      21.86125261      19.93837400
H       23.97449489      22.74027124      20.50665237
O       23.97336094      18.90094098      18.97154170
H       24.39158311      21.61076377      19.19008244
H       24.62960350      19.43115546      22.23501521
C       24.76187054      20.30180558      21.57860702
H       25.12939235      21.15365459      22.17174693
H       25.50951889      20.04853656      20.81696617
