16
Lattice="19.78901064 0.0 0.0 0.0 19.78901064 0.0 0.0 0.0 19.78901064" Properties=species:S:1:pos:R:3 dft_energy_ryd=-113.84228678 molecule_idx=2494 crystal_idx=2159 pbc="F F F"
H        8.63316453       8.86281584     -11.71633652
H        8.63693264      11.22508520     -11.40636632
N        8.92993039      10.63536450     -10.62583904
H        8.89922326       8.26280166      -9.35084061
C        9.42993405       9.34620441     -11.13272085
H        9.45812786      10.31823363      -8.00596331
H        9.56260727      12.27668858      -9.47304694
C        9.81571510       8.46188698      -9.94554035
C        9.96822929      11.32205817      -9.83840458
H       10.22133986       7.50725790     -10.31089946
H       10.32581522       9.46571175     -11.77798374
C       10.35400967      10.43773991      -8.65122447
H       10.88472358      11.52114077     -10.43310226
N       10.85401550       9.14857912      -9.15810579
H       11.14701316       8.55886292      -8.37757994
H       11.15077867      10.92112866      -8.06760584
