21
Lattice="34.0788924 0.0 0.0 0.0 34.0788924 0.0 0.0 0.0 34.0788924" Properties=species:S:1:pos:R:3 dft_energy_ryd=-288.54474114 molecule_idx=2504 crystal_idx=2168 pbc="F F F"
H       13.88777432      18.56848591     -18.29667581
H       14.20449972      20.34797759     -18.27084131
C       14.65003224      19.35335427     -18.37581290
O       15.59202143      19.25898957     -17.27301781
H       15.17189644      19.24939559     -19.33632740
N       16.07162755      17.13020139     -18.06209221
C       16.29222345      18.10949391     -17.17753125
O       16.64655208      15.05016491     -18.73378615
C       16.85449727      16.04894040     -17.85076744
N       17.16978616      18.09808321     -16.15234599
H       17.14281981      13.19070401     -19.37068120
H       17.41247083      13.44695491     -17.59651996
C       17.50194071      13.88149401     -18.60065149
N       17.77418082      15.89301092     -16.89183381
C       17.87370849      16.96442052     -16.07316923
H       18.41243765      18.76178701     -14.40316603
H       18.54889009      14.16106583     -18.77838218
H       18.71007544      17.49449990     -13.15524008
O       18.79776521      16.80377637     -15.10245079
C       19.00445448      17.87843566     -14.14110370
H       20.07782830      18.10624661     -14.15508586
