27
Lattice="40.5734994 0.0 0.0 0.0 40.5734994 0.0 0.0 0.0 40.5734994" Properties=species:S:1:pos:R:3 dft_energy_ryd=-437.26123693 molecule_idx=2512 crystal_idx=2176 pbc="F F F"
H       15.52854147      21.17883010     -17.33224188
H       16.22418721      22.68771119     -17.96838408
C       16.47058354      21.69948916     -17.55418162
H       17.01438252      21.84767607     -16.61166091
H       16.73745600      20.62770229     -19.44534078
C       17.30391410      20.86946324     -18.53476482
H       17.63047307      19.93144486     -18.06281509
S       18.77360204      21.85443577     -19.01302294
S       19.49383114      18.95247812     -19.71096643
C       19.77521115      20.66568235     -19.79932022
H       20.35622097      16.59511440     -21.27285783
C       20.93254936      20.91731063     -20.55050294
C       20.90878074      18.56833252     -20.65774448
C       21.55798022      19.71460986     -21.02641414
N       20.99015971      23.34951130     -20.30114049
C       21.26128971      17.13511904     -20.94998983
C       21.43476785      22.24029271     -20.83186119
H       21.59095063      16.64300919     -20.01906623
H       22.04633802      17.46836048     -22.95875118
H       22.46258417      19.72063166     -21.62931928
O       22.46625590      22.30794685     -21.75896045
C       22.35661452      16.99721901     -22.01581192
S       21.83740217      24.65388987     -20.95325076
H       22.56827311      15.93755652     -22.21120392
C       22.86587051      23.64692473     -21.99423841
H       23.29018760      17.47559654     -21.68771204
O       23.74630141      23.93837019     -22.77318482
