25
Lattice="34.15287456 0.0 0.0 0.0 34.15287456 0.0 0.0 0.0 34.15287456" Properties=species:S:1:pos:R:3 dft_energy_ryd=-360.41044454 molecule_idx=2520 crystal_idx=2184 pbc="F F F"
H       14.06619036      17.53902467     -13.04051994
O       14.46734431      17.14180615     -13.84398833
H       14.62906107      18.28582173     -17.00331723
H       15.24269961      15.62672279     -17.83276209
C       15.54954103      17.93783478     -14.16237802
C       15.58205893      17.76975532     -16.85045957
C       15.91127081      16.29456687     -17.27906013
O       15.87531314      18.91110622     -13.49007855
H       16.31531876      15.12346699     -15.24577773
C       16.20482902      17.48762279     -15.41234816
C       16.52112762      16.00569338     -15.85922164
C       16.99418657      18.24673241     -17.35094426
H       17.23419069      16.69141066     -19.94030444
H       17.18941918      19.13828072     -17.95502683
C       17.32932810      16.76962445     -17.78980039
C       17.60712103      17.96006431     -15.92950151
C       17.93729340      16.47993120     -16.36239747
C       17.88540394      16.36106670     -19.11537373
H       18.02903511      15.27142090     -19.18982454
H       18.26802106      18.62939025     -15.37129708
H       18.88397016      15.96352905     -16.17313567
O       19.24130164      16.06949607     -21.31586519
O       19.18291375      17.02695025     -19.23364738
N       19.82922669      16.78627107     -20.51826381
O       20.89789684      17.35647300     -20.60876907
