25
Lattice="35.99173872 0.0 0.0 0.0 35.99173872 0.0 0.0 0.0 35.99173872" Properties=species:S:1:pos:R:3 dft_energy_ryd=-256.45389174 molecule_idx=2559 crystal_idx=2219 pbc="F F F"
H       14.09905817      17.47222623     -20.26430592
H       14.67036985      19.03101112     -20.90066464
C       14.97409572      17.99934905     -20.66199187
H       15.26741052      17.51491632     -21.60645225
H       15.42943969      16.85432715     -17.85142226
C       16.08400881      17.96662678     -19.66324421
C       16.18234878      17.40747913     -18.39973026
H       16.99374867      20.01385438     -21.40079226
N       17.30327619      18.56449265     -19.90416077
C       17.48984259      17.71881279     -17.95288632
O       17.45950681      16.57306593     -15.87888866
C       17.72119721      19.23886564     -21.12366214
H       17.81670410      18.52017529     -21.95126314
C       18.10374086      17.35148670     -16.66791067
N       18.17132322      18.42897139     -18.88340977
H       18.46348947      16.45992681     -14.75143919
H       18.69398210      19.69699083     -20.92176219
O       19.37264525      16.68346327     -14.27658903
C       19.39767382      17.86837745     -16.32778858
C       19.98376984      17.51236056     -15.12989781
H       19.90311441      18.54282835     -17.01296900
H       21.19571459      18.62138218     -13.76691438
C       21.31801732      18.01681420     -14.67854624
H       21.78817333      18.62742009     -15.45812933
H       21.97554147      17.17296848     -14.42337185
