37
Lattice="36.5192982 0.0 0.0 0.0 36.5192982 0.0 0.0 0.0 36.5192982" Properties=species:S:1:pos:R:3 dft_energy_ryd=-237.207245 molecule_idx=2589 crystal_idx=2247 pbc="F F F"
H       14.24399444      19.80095107     -18.94608795
H       14.50690405      20.12330665     -21.36672503
H       14.97655000      17.96377083     -20.15955399
O       15.16993020      19.53787744     -18.79765479
C       15.53618909      19.76353426     -21.21677600
H       15.58807975      16.05143759     -19.39358499
C       15.62019457      18.84876094     -19.99706893
H       15.84669746      19.22280934     -22.12328757
H       16.19552803      20.63233096     -21.07619392
H       16.57858965      17.69597832     -17.75468118
C       16.63383222      15.98283339     -19.06055153
H       16.68013191      15.25346963     -18.23867705
C       17.05069256      18.39449134     -19.72402026
C       17.18032381      17.34358759     -18.60877133
H       17.23053912      15.58725509     -19.89811299
H       17.48225614      17.98460286     -20.65353318
H       17.54664601      17.72383342     -15.78677900
H       17.63925940      19.29111964     -19.46487150
H       18.57967521      19.28056316     -17.50141972
C       18.60941929      18.00501258     -15.77322718
C       18.65126815      17.22696771     -18.16780356
H       18.72255761      18.84872485     -15.07986521
H       18.81520410      16.25441588     -17.67471901
C       19.08243090      18.34233202     -17.19678472
H       19.17604089      17.14966621     -15.37458115
H       19.29382647      17.24655945     -19.06251149
H       20.39029493      19.97575832     -18.73234350
H       20.37967138      20.57683148     -16.29877254
C       20.60586659      18.64244657     -17.28590650
O       20.90555080      19.15449536     -18.62105469
H       20.95139616      19.27965324     -15.22523770
C       21.02623896      19.68654998     -16.24289185
H       21.23966866      16.67975960     -17.96908090
H       21.27166074      16.88497881     -16.19470214
C       21.46210148      17.38195017     -17.15565424
H       22.06536633      19.99078013     -16.42554743
H       22.52559404      17.65077532     -17.21113614
