23
Lattice="29.6984394 0.0 0.0 0.0 29.6984394 0.0 0.0 0.0 29.6984394" Properties=species:S:1:pos:R:3 dft_energy_ryd=-282.93932963 molecule_idx=2598 crystal_idx=2255 pbc="F F F"
H       11.26237352      15.04131668     -12.16453592
H       11.47264266      14.02987483     -13.62114981
C       12.00066562      14.57957430     -12.82472564
H       12.58998563      13.84309640     -12.25507849
S       12.60727413      17.27833727     -13.20496883
C       12.88466341      15.65186020     -13.42219906
H       13.36064326      13.33374122     -15.03024607
N       13.92418705      15.18868726     -14.16311797
C       14.18689980      13.77255695     -14.44898518
H       14.28081479      13.20286772     -13.51426506
H       14.32358669      16.75264032     -15.55934816
C       14.84539035      16.09519526     -14.84538911
H       15.36721973      16.75263584     -14.13145295
H       15.40999515      13.20286732     -16.17655725
C       15.50388166      13.77257680     -15.24179660
N       15.76678473      15.18872265     -15.52781317
H       16.33016758      13.33373811     -14.66056817
C       16.80602364      15.65181103     -16.26852285
S       17.08354111      17.27834179     -16.48583895
H       17.10082766      13.84310417     -17.43572331
C       17.69016701      14.57958946     -16.86610446
H       18.21816526      14.02988194     -16.06967120
H       18.42841512      15.04129830     -17.52625731
