25
Lattice="36.15340932 0.0 0.0 0.0 36.15340932 0.0 0.0 0.0 36.15340932" Properties=species:S:1:pos:R:3 dft_energy_ryd=-332.58316755 molecule_idx=2607 crystal_idx=2264 pbc="F F F"
H       15.73173058      16.36059718     -15.58881253
H       16.28523327      17.23830966     -13.34200819
C       16.66408116      16.90533122     -15.43217907
S       17.08386759      16.34161624     -18.04368154
H       16.73153613      18.75464411     -19.78349815
C       16.97743056      17.40405778     -14.16753122
H       17.14945093      18.85972665     -22.41268968
C       17.54786396      17.10159803     -16.51071026
C       17.78203247      18.62662871     -19.48917328
H       17.99297546      16.56851642     -20.18341877
C       18.16404417      18.11789300     -13.95919135
C       18.21810896      18.64959606     -22.28869613
C       18.15137896      17.15990002     -19.27058850
O       18.42316116      20.83201129     -20.81641163
H       18.40506426      18.50858467     -12.97090710
H       17.96608730      19.22911974     -18.58805312
H       18.79539879      19.11842747     -23.09452929
H       18.42206772      17.57329440     -22.25402412
C       18.73744098      17.81965782     -16.30432808
S       18.79425380      19.42157145     -20.76764155
C       19.03516026      18.32428413     -15.03303505
H       19.20989404      17.05960942     -18.99611117
H       19.44276681      17.98218539     -17.11844529
H       19.96302451      18.87729587     -14.88770470
O       20.18594968      19.02554674     -20.55663372
