14
Lattice="23.799023639999998 0.0 0.0 0.0 23.799023639999998 0.0 0.0 0.0 23.799023639999998" Properties=species:S:1:pos:R:3 dft_energy_ryd=-327.3409049 molecule_idx=2636 crystal_idx=2291 pbc="F F F"
O       10.19128466       9.95975253     -13.17754380
O       10.84522832      10.12706501      -9.88138046
C       11.00449989      10.84483119     -13.00255484
H       11.11457194      11.87969380     -14.86005902
N       11.45766098      11.82095162     -13.90577264
C       11.51566550      10.97356513     -10.43686107
N       11.75793026      11.13177489     -11.83021273
N       12.26426542      12.02101666      -9.87493070
C       12.33784614      12.77072058     -13.36196616
H       12.33623988      12.16490440      -8.87225554
N       12.55486538      12.27560847     -12.04684178
O       12.81695172      13.75929713     -13.88087687
C       12.85452981      12.89435139     -10.80260928
O       13.48518758      13.91319458     -10.60286245
