26
Lattice="34.32618756 0.0 0.0 0.0 34.32618756 0.0 0.0 0.0 34.32618756" Properties=species:S:1:pos:R:3 dft_energy_ryd=-438.22969856 molecule_idx=2634 crystal_idx=2289 pbc="F F F"
H       13.45005147      15.44591537     -17.17836917
O       13.86497938      15.09094288     -16.33222954
H       14.43392439      16.70285448     -18.84890226
N       14.20868742      15.70093411     -18.81971582
H       13.98086714      15.38986250     -19.76416222
C       15.09662720      14.70077377     -16.73948054
H       15.37177614      13.95292862     -18.70279504
C       15.34951113      14.95723140     -18.25044199
O       15.91591313      14.16480929     -16.00893140
C       16.73308365      15.59886887     -18.48122303
H       17.03339927      15.49469263     -19.53490968
S       16.76951897      17.41176842     -18.18210797
S       16.90772535      17.54882168     -16.13868929
H       17.48572788      15.11139612     -17.84753705
H       17.61935640      19.88302420     -15.46905254
N       18.62170328      20.10663766     -15.49661916
H       18.93226486      20.33088046     -14.55113088
C       18.72078608      17.58265055     -15.84007335
H       18.82490003      17.28041590     -14.78692673
O       19.23270724      20.45562734     -17.98324209
H       18.87919880      20.86977356     -17.13622769
C       19.36384715      18.96607261     -16.06851657
H       19.20710764      16.83043346     -16.47517169
C       19.61976089      19.22186893     -17.57920733
O       20.15251004      18.40294436     -18.31231097
H       20.36806039      18.94186622     -15.61602144
