38
Lattice="33.920555760000006 0.0 0.0 0.0 33.920555760000006 0.0 0.0 0.0 33.920555760000006" Properties=species:S:1:pos:R:3 dft_energy_ryd=-441.12047013 molecule_idx=2648 crystal_idx=2302 pbc="F F F"
H       14.05915463      17.29416047     -17.35013232
H       14.39978941      17.85457151     -19.81273704
H       14.95361088      19.77422699     -17.81406437
C       15.06493414      17.59106379     -17.67393050
H       15.23507757      15.45950150     -15.59354754
C       15.28586250      17.59735548     -19.22447265
H       15.48453338      17.40196946     -14.01432391
C       15.54065496      19.00171667     -17.29228707
H       15.54091547      19.20483547     -16.21947622
H       15.78880959      15.70946463     -20.47271995
C       16.08268881      16.30964319     -19.60764467
O       16.08387683      14.32164335     -18.15880842
C       16.13316178      16.06963028     -15.74607530
C       16.13643514      15.53714913     -18.30260086
C       16.18357052      16.60778364     -17.19477067
C       16.24686601      17.22285845     -14.77189813
H       16.56585243      19.30451119     -20.09333956
C       16.57947988      18.46443786     -19.39159477
O       16.68882030      13.94710942     -13.54017020
C       16.93736476      18.84861410     -17.91693768
C       17.35425274      17.97014913     -14.91254519
H       17.36332401      14.33717561     -16.24584505
C       17.39761550      17.19088062     -19.77680281
C       17.41088812      15.18309278     -15.54861915
C       17.48613775      14.63575776     -14.13489794
C       17.51823508      17.50532988     -17.36696708
H       17.59729945      18.82114266     -14.27693471
H       17.62895343      19.69422777     -17.81412869
H       17.89707529      17.12517734     -20.74705649
C       18.28331656      17.52316014     -16.02202965
C       18.31531171      16.99303910     -18.58368527
O       18.68334117      15.05988378     -13.51872515
C       18.67799917      16.04041596     -15.70720897
H       19.18850448      18.13709861     -16.10068458
H       19.35525496      15.68003904     -16.49162335
C       19.39076714      15.93455153     -14.37101693
O       19.46444653      16.56822169     -18.59572536
O       20.40230011      16.48489233     -14.00045390
