30
Lattice="32.7016494 0.0 0.0 0.0 32.7016494 0.0 0.0 0.0 32.7016494" Properties=species:S:1:pos:R:3 dft_energy_ryd=-218.90953405 molecule_idx=2668 crystal_idx=2320 pbc="F F F"
H       13.65921523      14.52647480     -18.49123887
H       13.82410202      17.34653367     -16.90485222
C       14.37345180      16.70114201     -16.21939414
C       14.51878699      15.05231847     -18.06722738
C       14.61762025      15.37053975     -16.60201498
H       14.82778698      19.50262350     -14.70426583
C       15.08885739      17.29288044     -15.16445999
C       15.40008072      18.75960574     -15.26537782
C       15.49059507      14.58740125     -15.82644136
H       15.47942521      15.23915037     -19.95013434
C       15.53213613      15.44922559     -18.87872283
H       15.68158699      18.07120280     -18.39013596
H       15.79701374      13.61527479     -16.21323960
C       15.96561167      16.49256233     -14.41218471
C       16.22097404      15.15670502     -14.76847940
C       16.41459341      19.15814189     -16.07546576
C       16.52057673      17.53429690     -17.94785716
H       16.64186426      16.98024439     -13.71043952
H       16.65757228      20.22079325     -16.16012729
C       16.69889455      16.17934542     -18.27502754
C       17.16919864      18.10545366     -16.83894355
C       17.60338104      14.63085706     -14.49974675
C       17.63652128      15.42852043     -17.54578516
H       17.65363611      14.34712877     -17.67792345
H       17.80871181      13.93624907     -13.68083411
C       18.10950519      17.33524304     -16.13187793
C       18.30176779      15.97619583     -16.43470324
H       18.49296488      17.71979780     -15.18649890
C       18.61911469      15.04175345     -15.30136893
H       19.63408448      14.68196987     -15.11486262
