8
Lattice="19.94597136 0.0 0.0 0.0 19.94597136 0.0 0.0 0.0 19.94597136" Properties=species:S:1:pos:R:3 dft_energy_ryd=-114.2665721 molecule_idx=2681 crystal_idx=2331 pbc="F F F"
H        8.17955263       9.94250620     -10.93948942
N        9.04406190       9.53447539     -10.59365541
O        9.29917211      11.43837937      -9.30845447
H        9.55166670       8.96444753     -11.26434843
C        9.77346582      10.39682366      -9.77595458
N       11.08226342       9.98526399      -9.53039977
H       11.28709584       8.99007336      -9.56179908
H       11.52930612      10.49461504      -8.77248343
