47
Lattice="42.73512264 0.0 0.0 0.0 42.73512264 0.0 0.0 0.0 42.73512264" Properties=species:S:1:pos:R:3 dft_energy_ryd=-700.95655682 molecule_idx=2683 crystal_idx=2332 pbc="F F F"
O       17.76863347      21.46279487     -20.10974605
H       18.35848209      18.04268208     -24.36757127
H       18.37761222      20.48195206     -24.89231137
H       18.70350891      23.80810485     -21.51543738
C       18.74046451      18.75743326     -23.63885658
C       18.74779815      20.12474687     -23.93174468
N       18.83531389      22.00635285     -19.82217612
O       19.01055059      22.82804969     -18.92052577
C       19.23616736      18.31238552     -22.41020004
H       19.24468024      17.24805556     -22.17524175
C       19.23250561      21.04073265     -22.99732070
H       19.24274047      22.09975844     -23.24554260
H       19.54123566      25.92645082     -22.46380102
H       19.63714110      20.15531353     -18.39933315
C       19.72603439      19.22722501     -21.47722978
C       19.71719821      20.60451452     -21.75321093
C       19.77680600      23.94836264     -21.64689640
H       20.12007417      18.86165483     -20.53110460
C       20.15436956      21.61266453     -20.69457108
C       20.24875201      25.14927358     -22.17565233
C       20.66398628      22.92785535     -21.27123056
C       20.70360773      20.30649960     -18.56853909
C       21.13752239      21.03722651     -19.68528590
H       21.26174697      19.21276467     -16.80049440
C       21.62497169      25.35726003     -22.31542678
C       21.62095011      19.77575081     -17.66138918
H       22.00236529      26.30111882     -22.70849950
C       22.04378033      23.12616242     -21.44826083
O       22.25507052      19.73609599     -23.72240741
O       22.10929403      21.92318594     -23.94918225
C       22.51443714      24.34904713     -21.94927808
C       22.51303867      21.22403727     -19.88242631
N       22.52209386      20.88934063     -23.42048566
C       22.99179092      19.97947592     -17.84994273
C       23.02637549      22.03675335     -21.05643727
C       23.42994016      20.70795405     -18.95426654
O       23.40192847      18.96444660     -21.45622573
H       23.58731588      24.50285064     -22.05839092
C       23.54381588      21.17854978     -22.26204237
H       23.71313974      19.58012455     -17.13805514
H       23.95964599      22.52599454     -20.73534163
N       24.17821596      19.86712699     -21.74484047
H       24.49730454      20.87747779     -19.10624786
N       24.73094184      21.90469119     -23.03860736
O       24.99763285      21.42530724     -24.13618908
O       25.29144821      22.84133283     -22.47646130
O       25.40326869      19.88875935     -21.58127052
