12
Lattice="23.27067036 0.0 0.0 0.0 23.27067036 0.0 0.0 0.0 23.27067036" Properties=species:S:1:pos:R:3 dft_energy_ryd=-217.91140592 molecule_idx=2703 crystal_idx=2348 pbc="F F F"
H        8.43460541      12.82527159     -10.68030851
N        9.35323570      12.76193149     -11.10491095
H        9.70675320      13.50465851     -11.70257493
O        9.78455192      10.66461772     -10.23324015
C       10.10487441      11.64722472     -10.91171683
C       11.46653831      11.72097662     -11.64427934
O       11.78596331      12.67104324     -12.36251741
S       12.46436632      10.30703311     -11.30445352
H       13.66656821      10.80830126     -13.34546205
C       13.91244125      10.80775889     -12.27704698
H       14.22785863      11.81414455     -11.97683113
H       14.70426911      10.07906403     -12.06868393
