16
Lattice="22.475176920000003 0.0 0.0 0.0 22.475176920000003 0.0 0.0 0.0 22.475176920000003" Properties=species:S:1:pos:R:3 dft_energy_ryd=-218.41343328 molecule_idx=2718 crystal_idx=2362 pbc="F F F"
H        8.72948962      11.18962877     -10.55204605
H        9.31098135      11.41193915     -12.20852916
C        9.63802331      11.26094437     -11.16389702
O        9.73676055       8.84079480     -10.96690724
H       10.00512715      13.38229838     -10.82965579
C       10.33766664       9.89926372     -11.12069074
C       10.54066766      12.42965292     -10.72638585
H       10.81147755      12.31626518      -9.66590162
H       11.60829417      12.71231169     -12.61396007
C       11.81130184       9.96367952     -11.30402757
C       11.82506230      12.47806540     -11.56011748
N       12.45016172      11.15423782     -11.49581189
H       12.55015282      13.20693071     -11.17972292
N       12.73713090       8.99535638     -11.29681914
N       13.76971302      10.92644954     -11.61239859
N       13.92406530       9.61825755     -11.48920459
