22
Lattice="28.5183234 0.0 0.0 0.0 28.5183234 0.0 0.0 0.0 28.5183234" Properties=species:S:1:pos:R:3 dft_energy_ryd=-249.38301393 molecule_idx=2716 crystal_idx=2360 pbc="F F F"
H       11.29533647      12.65550471     -13.62696973
C       12.29577304      12.39420605     -13.25556792
H       12.30866341      12.44008703     -12.16303941
H       12.55213423      11.39119879     -13.61271088
H       14.08007747      15.98864582     -15.18216811
N       13.29765218      13.34971559     -13.75679186
O       13.40875526      12.15896528     -15.73918701
C       13.80069430      13.11443276     -15.05634221
C       13.84315468      14.27872977     -12.83748456
O       13.50737159      14.29989480     -11.64600653
C       14.87355076      15.29568161     -14.81418282
N       14.77869843      14.00311468     -15.47232209
N       14.79628386      15.12663374     -13.37303603
H       15.85154912      15.73852405     -15.05627981
H       15.25496559      15.92282866     -11.50011356
H       15.13686497      12.91259956     -17.21422208
C       15.23819029      13.94296919     -16.85748502
C       15.31077618      16.21961738     -12.55259920
H       14.64424587      14.60315990     -17.51508677
H       14.72448791      17.14593917     -12.68834613
H       16.29258923      14.25173167     -16.89677952
H       16.35634210      16.41397674     -12.83143574
