18
Lattice="22.607953199999997 0.0 0.0 0.0 22.607953199999997 0.0 0.0 0.0 22.607953199999997" Properties=species:S:1:pos:R:3 dft_energy_ryd=-361.89065632 molecule_idx=2736 crystal_idx=2379 pbc="F F F"
O        8.96921110      10.13550926     -10.42498025
O        9.53151930      10.77133034     -13.42777613
O        9.61655850      11.55278680      -8.86381402
N        9.81178844      10.80043430      -9.82046674
O       10.40802463      12.77670832     -13.70473357
N       10.40151549      11.62676147     -13.25951957
H       10.58015571       9.47016315     -11.89190920
N       11.19056946      10.60231203     -10.21302239
C       11.41048351      10.10867357     -11.58146418
N       11.58691968      11.20120501     -12.54884531
H       11.83184832      12.07588931      -8.86143390
O       12.10303999      12.74814826     -10.78021195
C       12.11565469      11.66824757      -9.83394783
H       12.34970140       9.53777665     -11.56062996
H       12.45111477      13.09903879     -12.77082922
C       12.47898071      12.25640646     -12.07647423
H       13.12009429      11.20744556      -9.79501198
H       13.48848288      11.80682614     -12.03059247
