15
Lattice="21.69264888 0.0 0.0 0.0 21.69264888 0.0 0.0 0.0 21.69264888" Properties=species:S:1:pos:R:3 dft_energy_ryd=-206.97208902 molecule_idx=2735 crystal_idx=2378 pbc="F F F"
N        8.50028428      11.11423232      -9.76381539
O        8.93116150      11.44637896      -8.46824527
H        8.96935705      10.68738408     -12.36830309
C        9.61308452      10.93836898     -10.44622561
N        9.76595085      10.52394442     -11.75754683
N       10.33327198      11.47563036      -8.38165614
C       10.74518195      11.17680071      -9.59624122
C       11.09587262      10.80231438     -12.32795698
H       11.20225977      10.22442720     -13.25512775
H       11.22972123      11.87455232     -12.55802397
N       12.03973043      11.13755739     -10.08463395
H       12.10873790       9.28147894     -11.16280737
C       12.18498776      10.37057828     -11.33488543
H       12.77038528      11.01125920      -9.38846735
H       13.16916433      10.59424393     -11.76521500
