19
Lattice="28.866007800000002 0.0 0.0 0.0 28.866007800000002 0.0 0.0 0.0 28.866007800000002" Properties=species:S:1:pos:R:3 dft_energy_ryd=-235.45715113 molecule_idx=2756 crystal_idx=2397 pbc="F F F"
H       11.22604768      12.93005950     -14.12075333
H       11.64989031      12.88674644     -12.39261040
C       12.06260678      12.85182222     -13.41055889
H       12.60632398      14.95548733     -13.49827517
H       12.53039011      11.86542775     -13.54870052
H       12.94837783      14.10060291     -15.81725149
C       13.08344299      13.97269948     -13.63320007
C       13.70583917      13.90470366     -15.04532775
H       13.88601784      13.89984623     -12.88506695
H       14.09708743      12.88718592     -15.21718929
C       14.80710102      14.88514342     -15.24801396
N       14.82245285      15.88126524     -16.11958670
N       15.97768970      14.89712337     -14.52956693
N       16.04695949      16.50476273     -15.93019500
O       16.38726785      14.01494026     -13.54158738
H       16.29825535      17.30944459     -16.49183765
H       17.29807751      14.36497501     -13.35178675
C       16.82045773      15.93000508     -14.94529891
O       17.94928987      16.16133432     -14.47676831
