20
Lattice="28.73148516 0.0 0.0 0.0 28.73148516 0.0 0.0 0.0 28.73148516" Properties=species:S:1:pos:R:3 dft_energy_ryd=-246.97512613 molecule_idx=2759 crystal_idx=2399 pbc="F F F"
H       10.67444615      15.81104331     -14.40632705
H       10.66312810      14.94461831     -15.99061773
C       11.25012502      15.56827800     -15.30761254
H       11.47967238      16.51538779     -15.82075074
C       12.53290657      14.87504861     -14.94076453
N       13.12699699      15.26903270     -13.79569877
N       13.00014808      13.94221082     -15.80045613
H       14.49896383      15.90020363     -11.86584391
C       14.28729410      14.66656904     -13.46295963
C       14.14871893      13.33924977     -15.43111344
H       14.53193502      12.56605401     -16.10663155
N       14.89317261      15.06973287     -12.30012686
C       14.84180852      13.63108033     -14.26218536
H       15.89675328      14.93033016     -12.21094359
C       16.08130733      12.89229644     -13.85212837
H       15.97330346      12.47595006     -12.84076997
H       16.28441717      12.06394652     -14.54960429
N       17.29466837      13.77815904     -13.74621450
N       17.67931799      14.26429605     -14.81990201
N       18.12677654      14.76237293     -15.75520933
