20
Lattice="25.58750796 0.0 0.0 0.0 25.58750796 0.0 0.0 0.0 25.58750796" Properties=species:S:1:pos:R:3 dft_energy_ryd=-309.88715903 molecule_idx=2773 crystal_idx=2411 pbc="F F F"
H        8.35001956      13.54303627     -14.22924402
N        9.06477416      13.16282764     -12.31719148
C        9.21858642      13.21240423     -13.65561929
H        9.99793506      12.75306905     -10.50693570
C       10.12519146      12.76903314     -11.59250973
C       10.40648957      12.88071846     -14.31268566
H       10.48868701      12.96534212     -15.39646445
C       11.34844543      12.36179542     -12.15456080
C       11.49045905      12.42117994     -13.55245927
S       12.61699917      11.72023517     -11.09937834
S       12.95739165      11.89242223     -14.38759849
C       14.07155280      12.36870677     -11.87387436
C       14.22451883      12.41689555     -13.27078615
H       15.04165126      12.79197799      -9.98525249
C       15.14718808      12.79320859     -11.07308965
C       15.44451787      12.86939473     -13.79144942
H       15.59325938      12.93817408     -14.86919696
N       16.33349693      13.18990567     -11.56223909
C       16.46545438      13.21855900     -12.90336028
H       17.43311093      13.55084296     -13.28583337
