33
Lattice="35.305842600000005 0.0 0.0 0.0 35.305842600000005 0.0 0.0 0.0 35.305842600000005" Properties=species:S:1:pos:R:3 dft_energy_ryd=-306.70324132 molecule_idx=2776 crystal_idx=2414 pbc="F F F"
H       15.07731553      16.88468094     -19.33015705
O       15.21800912      14.77092399     -19.07840203
H       15.57576650      19.72518376     -16.67092689
C       15.75677157      16.04581620     -19.55638313
H       15.88536717      14.73683275     -17.04793193
H       15.98477262      16.03156636     -20.63538787
H       16.11031705      21.50902231     -15.01163310
H       16.29693207      17.12887989     -16.97110595
C       16.28251361      14.66083022     -18.07423451
H       16.34338557      18.64164429     -18.89275010
C       16.59750274      20.10125912     -16.58033102
H       16.85568371      13.72752296     -18.19099307
C       16.89620794      21.10149218     -15.64924303
C       16.98436735      15.94101086     -18.62880983
C       17.17355226      17.09154445     -17.63809790
C       17.29458422      18.45124593     -18.37094026
C       17.59901693      19.57259151     -17.41137411
H       18.10489003      15.10490494     -20.12577186
H       18.08463334      18.35529788     -19.12883792
N       18.24315964      15.75354288     -19.34725814
C       18.20600776      21.58386957     -15.53646655
N       18.34584925      16.81058721     -16.80118061
H       18.50305069      17.41896784     -15.99836524
H       18.43952488      22.36689115     -14.81524278
C       18.90872048      20.05755299     -17.28125710
H       19.11572592      14.19901806     -18.11908902
C       19.21286275      21.05827590     -16.35281987
C       19.29405016      15.24407153     -18.44917663
C       19.44011478      16.07083560     -17.17347006
H       19.69184551      19.64529483     -17.91905921
H       20.23646358      21.42373231     -16.26428866
H       20.26556347      15.26404224     -18.95684148
O       20.47119833      16.01679396     -16.48789949
