29
Lattice="35.5074678 0.0 0.0 0.0 35.5074678 0.0 0.0 0.0 35.5074678" Properties=species:S:1:pos:R:3 dft_energy_ryd=-359.12071152 molecule_idx=2774 crystal_idx=2412 pbc="F F F"
H       14.59542406      19.10684797     -15.43461475
C       15.65336639      19.22094269     -15.14356912
H       15.78937585      18.74759683     -14.15155375
H       15.96615115      16.56782126     -16.37937944
O       15.96114174      20.63394329     -15.07285598
C       16.60221189      18.64660148     -16.16068622
C       16.65660764      17.34776978     -16.69403360
O       16.56948123      14.91878333     -18.03525086
H       16.80301092      13.99759301     -18.25463614
H       17.07099493      21.77782745     -16.42017631
C       17.21019629      20.90195621     -15.76646678
H       17.29060050      16.33364081     -20.25166018
H       17.38201887      14.20332234     -20.67298988
C       17.50135281      19.64065385     -16.52476092
C       17.62164485      17.06860142     -17.65610535
C       17.76649060      15.68519523     -18.25095852
H       18.00744314      21.14160865     -15.03740157
C       18.10540725      15.78605845     -19.74765967
O       18.25091164      14.46939283     -20.32463842
C       18.48687182      19.38104847     -17.48441981
C       18.52856321      18.08251026     -18.08719377
H       18.62013189      15.17656891     -17.75799351
O       19.35090387      20.35384080     -17.83822486
C       19.43060885      16.52327480     -19.91056165
C       19.46640861      17.84858938     -19.17521147
H       19.67019916      16.70519930     -20.96636697
H       19.92979989      19.93261238     -18.56935444
H       20.23362688      15.88446587     -19.50277666
O       20.29307464      18.72975374     -19.54252006
