46
Lattice="42.6400254 0.0 0.0 0.0 42.6400254 0.0 0.0 0.0 42.6400254" Properties=species:S:1:pos:R:3 dft_energy_ryd=-992.35883623 molecule_idx=2781 crystal_idx=2418 pbc="F F F"
O       17.46224496      20.03989934      20.68329770
O       18.29639138      17.99650060      20.73161387
N       18.31754904      25.13944710      16.99899638
N       18.37398702      19.22023516      20.72361413
O       18.91833457      23.37477033      19.86960906
H       18.88939974      21.62829610      21.23875901
N       19.28617992      25.04126707      17.60624271
N       19.74020061      19.77397447      20.66098594
C       19.88031594      21.16515484      21.16670302
H       19.99657302      21.43706830      23.37845075
C       20.08518100      23.07433486      19.63656161
H       20.40246210      23.44080789      24.12816058
N       20.35058375      25.13202144      18.24367333
H       20.46549894      17.90937055      21.36996315
C       20.60579507      21.03602635      22.56688139
N       20.68140333      21.96406675      20.26023345
N       20.69956072      19.56835341      22.68549857
C       20.74540832      18.96398199      21.34238712
C       20.96908544      23.87821101      18.66970446
H       21.16326121      22.17522169      25.12560840
O       21.20550248      18.61563004      18.13385133
H       21.23048742      23.22514467      17.81798498
C       21.36052850      23.08985833      24.53778696
O       21.25651708      20.75699266      17.54616865
N       21.41292866      18.99384114      23.74635234
O       21.52289962      19.69231673      24.76280961
N       21.46394056      19.80855370      18.31550840
O       21.81674449      17.84033343      23.57077226
N       21.85663545      24.18500381      25.36965385
H       21.90335205      24.17030713      19.16784443
N       21.89788898      21.69855001      22.53335428
C       22.04132044      21.49634656      20.05708339
N       22.11722168      20.12638219      19.51393570
C       22.15793138      19.15521469      20.62124535
C       22.31531654      22.73255334      23.38644409
H       22.55919330      18.19497026      20.29260474
H       22.58675418      22.18508608      19.40977056
C       22.76952853      21.29410604      21.44829297
N       22.94839658      23.99423745      25.93471491
N       23.06522998      19.84189428      21.53167106
O       23.39037028      23.29922770      23.21246521
H       23.69952533      21.86752979      21.53114061
N       23.92843132      23.97247906      26.53108726
N       24.47769571      19.46625667      21.41542682
O       24.69769482      18.32241442      21.02781633
O       25.28381676      20.31102879      21.79253732
