18
Lattice="27.03862728 0.0 0.0 0.0 27.03862728 0.0 0.0 0.0 27.03862728" Properties=species:S:1:pos:R:3 dft_energy_ryd=-217.50238309 molecule_idx=2799 crystal_idx=2433 pbc="F F F"
H       11.34847223      11.73054578     -14.28082103
H       12.14625779      13.38991488     -16.03641258
H       12.28484770      11.52242563     -12.75398632
C       12.35480021      11.68822998     -13.83236326
H       12.85471333      10.82573530     -14.30460012
C       13.17107684      13.23185392     -15.65938848
C       13.10295572      12.93669650     -14.19130350
O       13.33662158      12.56361136     -11.09104902
H       13.55212021      12.34380637     -16.18969023
H       13.77941294      14.10968382     -15.89410986
C       13.67689092      13.74470354     -13.25352901
C       13.70473145      13.52216874     -11.77997356
N       14.31749749      14.66120497     -11.22383489
C       14.40351073      15.02120688     -13.50596815
H       14.93208457      14.47376898     -10.42954242
O       14.54744447      15.68732987     -14.53761598
N       14.91979695      15.43244860     -12.26166201
H       14.89334875      16.44124884     -12.10073349
