20
Lattice="29.02328604 0.0 0.0 0.0 29.02328604 0.0 0.0 0.0 29.02328604" Properties=species:S:1:pos:R:3 dft_energy_ryd=-408.28304322 molecule_idx=2812 crystal_idx=2444 pbc="F F F"
N       11.17335273      14.35107434     -13.11945595
O       11.24623365      13.35587547     -12.14005556
C       12.37619660      14.38108289     -13.66326144
N       12.49117882      12.79609491     -12.05100842
O       12.59429381      15.22056103     -14.70216182
C       13.20737448      13.38656354     -12.99633928
H       13.52708341      17.03768327     -14.76573502
C       13.83999177      15.98459953     -14.77779574
H       14.26479586      14.63004775     -16.42184855
H       14.33381677      16.36054769     -16.88104803
H       14.47990660      15.80311097     -13.90780599
C       14.56660671      15.63212028     -16.09709972
N       14.56087190      13.05982574     -13.17177296
N       14.92371124      13.53706854     -14.29576691
O       16.02703940      15.72008388     -15.99259583
C       16.25467228      13.58174173     -14.65278480
C       16.70238836      14.65888819     -15.50539103
N       17.28641319      12.80259061     -14.35111968
N       18.00276237      14.53542741     -15.70794178
O       18.34872545      13.37242764     -15.00642699
