24
Lattice="39.63803256 0.0 0.0 0.0 39.63803256 0.0 0.0 0.0 39.63803256" Properties=species:S:1:pos:R:3 dft_energy_ryd=-204.86071945 molecule_idx=2814 crystal_idx=2446 pbc="F F F"
H       15.83570508      17.26980811     -20.97494457
N       16.60787351      17.94704156     -22.77716027
C       16.64178839      17.85081426     -21.42977803
H       17.56360569      18.73445249     -24.43902357
H       17.57060928      18.30842859     -19.54591065
C       17.61889888      18.43529325     -20.62712606
C       17.59687392      18.66084992     -23.34891186
C       18.62028567      19.28383545     -22.63203520
C       18.65323123      19.18074263     -21.22815659
H       19.18884732      19.24649961     -18.52950142
H       19.39292251      19.84778668     -23.15751395
C       19.72867548      19.83151809     -20.48588433
C       19.90259081      19.79978952     -19.14542025
H       20.23829946      19.78352267     -16.47375638
H       20.44243132      20.38479648     -21.10179336
C       20.97802855      20.45055432     -18.40313035
C       21.01092597      20.34748002     -16.99925319
C       22.03436974      20.97038807     -16.28235792
C       22.01239591      21.19597475     -19.00412931
H       22.06066736      21.32284239     -20.08534428
H       22.06760611      20.89675868     -15.19224741
C       22.98952663      21.78041213     -18.20146334
N       23.02341350      21.68416367     -16.85408118
H       23.79561282      22.36143176     -18.65626151
