20
Lattice="25.086990600000004 0.0 0.0 0.0 25.086990600000004 0.0 0.0 0.0 25.086990600000004" Properties=species:S:1:pos:R:3 dft_energy_ryd=-267.177545 molecule_idx=2822 crystal_idx=2452 pbc="F F F"
H       10.61033734      10.58658127     -11.61501197
H       10.65754388      12.55709182     -10.32610225
O       11.17025898      12.88049432     -13.06883631
H       11.49989741      14.44967353     -11.71873100
H       11.50202369      10.98890044     -13.91084833
C       11.59827281      11.06090382     -11.65479407
C       11.62209439      12.37963845     -10.81604214
C       11.86307363      13.43648476     -11.91726378
C       11.85983049      11.60053061     -13.07675451
H       12.35190608      10.32903175     -11.33690681
H       12.40945514      12.39006984     -10.05086805
C       13.34948707      13.35257025     -12.37088990
C       13.35224933      12.03801124     -13.18329592
C       13.68969950      14.43247851     -13.38328771
C       13.71370818      12.45655187     -14.59683962
O       13.78057500      15.62605476     -13.21399583
O       13.83442194      11.76701619     -15.58283642
O       13.89213591      13.85425864     -14.65359055
H       14.04220017      11.25673465     -12.84321277
H       14.04928068      13.40537490     -11.52834366
