31
Lattice="41.092168320000006 0.0 0.0 0.0 41.092168320000006 0.0 0.0 0.0 41.092168320000006" Properties=species:S:1:pos:R:3 dft_energy_ryd=-304.43949665 molecule_idx=2856 crystal_idx=2484 pbc="F F F"
H       18.32628062      19.07765844     -19.40473783
H       18.67964660      21.84357289     -23.17664576
H       19.10283139      22.49306109     -25.85916663
H       19.10362580      21.01864206     -17.61172581
H       19.27270492      17.56466425     -19.27598763
C       19.30788726      18.65529035     -19.15063649
C       19.48812258      20.14578916     -17.09688323
C       19.50959803      22.32433548     -23.68343682
N       19.59437609      18.92315162     -17.74027866
C       19.75101654      22.65032984     -25.00198867
C       19.96266973      19.92998656     -15.81892545
H       19.99513010      22.95764031     -20.99274101
H       20.03007505      20.64145487     -15.00138712
C       20.13727619      18.04166723     -16.83507247
N       20.17299269      20.55192325     -20.40575390
H       20.32603211      17.00245457     -17.09365017
N       20.36515888      18.61418058     -15.66075454
C       20.36479836      19.26271937     -20.05209942
N       20.62863646      22.75010862     -22.98646162
C       20.86444070      22.58876808     -21.55249768
N       20.98869727      23.25573096     -25.13817095
C       21.11058750      21.13987268     -21.17375049
C       21.48694885      18.52647822     -20.44517240
C       21.48903513      23.29476662     -23.91011762
H       21.60306976      17.49243935     -20.11985394
H       21.73785724      23.20579922     -21.29703414
C       22.25406995      20.46941005     -21.63009599
C       22.44583386      19.14047313     -21.25514339
H       22.45180454      23.70794545     -23.61850339
H       22.96887245      20.98550153     -22.27147586
H       23.32716906      18.59142990     -21.58709673
