16
Lattice="22.65155928 0.0 0.0 0.0 22.65155928 0.0 0.0 0.0 22.65155928" Properties=species:S:1:pos:R:3 dft_energy_ryd=-249.64929511 molecule_idx=2887 crystal_idx=2512 pbc="F F F"
H        9.71033806      11.40936998     -10.26731259
H       10.10238218      10.39216360     -12.77135139
H       10.47814444       9.08632921     -10.80358460
H       10.68779451      13.18149525     -12.07804920
C       10.76764031      11.14268724     -10.10255356
H       10.87132307      10.85848421      -9.04445260
N       11.06255152      10.24242116     -12.44662397
C       11.13980721       9.94303387     -10.99126529
O       11.51294117      11.98812627     -14.20119564
H       11.36061378      13.22836029      -9.78451647
N       11.60221669      12.79917302     -11.81816057
C       11.65658377      12.36450201     -10.39565993
S       11.98780315      11.57034140     -12.89973405
H       12.17149063       9.62547493     -10.78480213
H       12.70887008      12.13715183     -10.17244315
O       13.36111923      11.21250564     -12.61991474
