34
Lattice="43.0395714 0.0 0.0 0.0 43.0395714 0.0 0.0 0.0 43.0395714" Properties=species:S:1:pos:R:3 dft_energy_ryd=-477.6376357 molecule_idx=2881 crystal_idx=2507 pbc="F F F"
H       19.16548283      23.50975363     -18.66078819
H       20.04979656      24.65483313     -20.61468723
H       20.12966319      21.66967593     -19.80699051
C       20.26052155      23.60389658     -18.73700643
H       20.48164872      17.17395136     -24.98517662
H       20.61376812      18.28621937     -22.74809091
H       20.63331277      25.68860931     -19.27821543
C       20.69778714      24.68935891     -19.72659401
C       20.89187669      22.30098383     -19.33671748
C       20.90788244      18.17463806     -24.88658758
O       21.14076358      20.98897679     -17.26374749
H       20.99702168      17.37726770     -27.21126548
C       20.97450125      18.79290282     -23.64307103
H       20.63846771      23.21355826     -16.84450844
O       20.81650624      23.95584484     -17.45547021
O       21.37839032      18.27330197     -27.27454435
C       21.39875115      18.84119907     -26.02275543
C       21.61706002      21.45906926     -18.29592576
O       21.55844372      20.00757791     -21.12154997
C       21.50750270      20.09020368     -23.51618633
C       21.57520517      20.67971369     -22.15771767
S       21.65514891      22.47960939     -22.10967656
C       22.00247989      22.74162788     -20.33262194
C       22.13020011      24.27558193     -20.10288956
C       21.94442622      20.12899905     -25.91049326
C       21.99084815      20.74762612     -24.66507133
H       22.54559289      24.79926073     -20.97194330
H       22.33875710      20.61800582     -26.80015504
H       22.44422827      21.73522243     -24.57499025
N       22.94749204      21.35060045     -18.68531530
H       22.79693750      24.44963866     -19.24645637
C       23.26445542      21.97574524     -19.89422309
H       23.63128236      20.80749331     -18.16058405
O       24.35730122      21.94255641     -20.44148704
