36
Lattice="46.60854912 0.0 0.0 0.0 46.60854912 0.0 0.0 0.0 46.60854912" Properties=species:S:1:pos:R:3 dft_energy_ryd=-633.94692271 molecule_idx=2893 crystal_idx=2516 pbc="F F F"
H       19.38036544      19.62587936      24.77785917
H       19.43108690      20.65161515      20.56164724
N       19.89033691      21.58364384      24.28283620
H       19.86388516      18.67639247      22.07101893
C       20.15141637      20.39535362      24.86066356
C       20.44291024      20.40178410      20.88713546
H       20.66074403      23.49464070      23.94862067
C       20.68456781      19.30875956      21.72455422
C       20.84189229      22.52138054      24.40927218
C       21.34745911      20.14255204      25.53907559
N       21.43854958      21.19600202      20.45031396
H       21.55182719      19.16552341      25.98218356
N       21.92216164      18.98468620      22.14401062
C       22.03437389      22.26845697      25.10867036
N       22.30014659      21.08472757      25.67538775
C       22.66845368      20.87472467      20.87274754
C       22.91759497      19.77403443      21.70949318
S       23.22950899      23.58645093      25.33760924
N       23.64651147      22.75060956      22.79462159
H       23.93433521      19.53408288      22.02842027
C       23.97986040      23.64547805      23.74443487
S       24.03351817      21.86794148      20.26343312
H       24.28969233      27.11987318      23.06202626
C       24.36111105      22.89122012      21.65980776
N       24.90877865      28.63615444      24.34322872
N       24.88962173      24.63460163      23.63390638
C       25.14791171      27.59332841      23.54065675
N       25.33783624      23.79144410      21.43076663
C       25.53458507      24.64673897      22.45397261
H       25.79819418      30.07457716      25.56243590
C       25.98668596      29.22108564      24.90753350
C       26.45980804      27.12632742      23.31348577
S       26.81208348      25.82537870      22.14272576
C       27.28419393      28.77154684      24.65770566
N       27.53279199      27.71332869      23.85947267
H       28.15055511      29.26503099      25.10362191
