16
Lattice="29.87577432 0.0 0.0 0.0 29.87577432 0.0 0.0 0.0 29.87577432" Properties=species:S:1:pos:R:3 dft_energy_ryd=-270.99015467 molecule_idx=2920 crystal_idx=2540 pbc="F F F"
H       13.02071714      10.59368668     -14.50053615
N       13.24715964      11.44524720     -13.98773130
H       13.71647699      11.27126812     -13.10258144
N       13.78006144      12.36526686     -16.11611089
C       13.80958738      12.41561843     -14.80075503
N       14.29581290      13.48998281     -16.70328131
S       14.51062959      13.88883786     -14.15221334
H       14.70621400      16.81868430     -14.28521749
C       14.73700384      14.37535598     -15.84098697
S       15.51346382      15.85976086     -16.35164959
H       15.61761864      18.72778374     -15.65988594
C       15.69598862      16.74204457     -14.75777951
C       16.28670137      18.12790663     -15.02711017
H       16.35812522      16.15447110     -14.10510744
H       16.42456648      18.65615269     -14.07358333
H       17.26570554      18.05376484     -15.52130284
