29
Lattice="31.4281296 0.0 0.0 0.0 31.4281296 0.0 0.0 0.0 31.4281296" Properties=species:S:1:pos:R:3 dft_energy_ryd=-289.03998362 molecule_idx=2959 crystal_idx=2577 pbc="F F F"
H       12.67211982      14.98440893     -14.62342319
H       13.23194271      15.06090084     -17.03161759
H       13.25751746      13.38758513     -15.21466360
C       13.54740080      14.42684075     -15.00758596
C       14.05524343      15.07590463     -16.29613248
H       14.21809578      15.68473660     -12.43924366
H       14.27612848      16.15185824     -16.10642150
H       14.62919017      16.43236420     -14.00372661
O       14.56531465      14.33457438     -13.99216776
H       14.80712671      14.88715309     -18.82360263
C       14.85199752      15.57745331     -13.34260727
N       15.17912459      14.32406874     -16.84292208
C       15.66447489      14.81963700     -18.13206789
H       15.73376885      16.92697026     -17.59400164
H       15.94295675      14.30078966     -16.15640555
H       16.04576474      17.05743648     -15.44527449
C       16.32133569      15.60003963     -12.92914695
H       16.36420558      14.07884197     -18.54969694
C       16.36916772      16.18026779     -18.10156939
H       16.52629927      16.50281734     -12.33219876
H       16.54268415      14.72258122     -12.30439260
H       16.56101226      16.53777505     -19.13113849
C       17.11918631      17.02355243     -15.20555189
H       17.35859101      17.88998636     -14.56872746
S       17.50044669      15.47704665     -14.31550224
O       17.62977718      16.03440509     -17.41273347
H       17.75648763      18.08127079     -16.97867809
C       17.93332362      17.09782177     -16.50271706
H       19.00778136      17.00937741     -16.28454861
