13
Lattice="22.77248148 0.0 0.0 0.0 22.77248148 0.0 0.0 0.0 22.77248148" Properties=species:S:1:pos:R:3 dft_energy_ryd=-201.29651961 molecule_idx=2952 crystal_idx=2571 pbc="F F F"
H        9.29848645      11.38421979     -11.61334901
H        9.77795948      11.38425368     -14.12524024
O       10.06169188      11.38428154      -9.16532162
C       10.31113582      11.38423101     -12.01603728
C       10.58024938      11.38425049     -13.38571919
C       11.17186006      11.38424846      -9.68452946
C       11.40787450      11.38424042     -11.15772782
N       11.82637583      11.38427313     -13.90434882
H       12.07136531      11.38423995      -8.01873912
O       12.33745645      11.38422627      -8.96335071
C       12.68233373      11.38426391     -11.74698370
N       12.88364650      11.38427573     -13.07930021
H       13.58484030      11.38427132     -11.13462859
