44
Lattice="37.96782444 0.0 0.0 0.0 37.96782444 0.0 0.0 0.0 37.96782444" Properties=species:S:1:pos:R:3 dft_energy_ryd=-350.48406612 molecule_idx=2964 crystal_idx=2581 pbc="F F F"
O       16.49012447      14.99880418     -19.90774677
H       16.53101674      19.61977720     -18.75702464
O       16.72922030      17.28078425     -19.87161383
H       17.17969205      21.78833271     -17.98535342
C       17.21831444      15.96370453     -19.75823012
H       17.15370889      18.44946281     -17.57313860
H       17.19677078      18.06309137     -22.28050953
H       17.24955059      20.90543909     -16.44791455
C       17.43417192      19.08248401     -18.43132000
C       17.81867767      18.18210603     -19.61108847
C       17.85191674      21.26352453     -17.29527344
H       17.93833391      21.63573158     -20.35167094
N       18.20558892      19.07411154     -20.73968363
C       18.21202798      18.40714638     -22.05123595
H       18.30165051      18.68564201     -15.49213551
H       18.51375916      19.14661504     -22.80466650
C       18.53161220      20.07849186     -17.99817870
H       18.58777790      21.98895517     -16.91524447
C       18.68984438      16.00911400     -19.53445969
H       18.86146410      22.67235513     -19.22075843
H       18.94656850      20.17409422     -15.18468291
C       18.92544795      21.81880998     -19.90745342
H       18.89606506      17.53690541     -22.11365380
C       19.04160554      17.30482191     -19.46515958
N       19.14500337      19.25649878     -15.59158083
H       19.16452778      14.04908548     -18.81632851
C       19.44822060      20.56136582     -19.19067982
H       19.40276863      14.25953042     -20.54860095
C       19.51406588      14.76452869     -19.57641356
C       19.53726270      19.39108946     -16.99643127
C       19.57937182      19.45830983     -20.28015964
H       19.61775975      22.09410619     -20.71816010
H       19.70154044      18.36142291     -17.34286457
H       20.13003674      19.88625031     -21.12997413
C       20.25541359      18.12197136     -19.78890518
H       20.57503194      14.98307783     -19.39890142
H       20.81374519      17.64482418     -20.60788325
C       20.83747435      20.83805010     -18.53592423
C       20.83390277      20.21120795     -17.12153785
H       20.81754180      21.00177114     -16.35474510
H       20.96491352      18.26869926     -18.96549919
H       21.01633828      21.92020131     -18.47985668
H       21.64275472      20.42624888     -19.16206692
H       21.71798813      19.59202762     -16.91586274
