22
Lattice="30.87818496 0.0 0.0 0.0 30.87818496 0.0 0.0 0.0 30.87818496" Properties=species:S:1:pos:R:3 dft_energy_ryd=-417.6219449 molecule_idx=2969 crystal_idx=2585 pbc="F F F"
H       13.57215422      15.07395121     -15.76907567
O       14.00139166      17.42971266     -15.43960256
H       13.69993707      17.23903109     -17.75499303
N       14.11337430      16.42824208     -18.21408249
N       14.31757555      16.38025170     -19.55384558
N       14.89023705      15.22979292     -19.78895912
C       14.58374140      15.28593697     -17.65724935
C       14.57553704      14.95266648     -16.19896073
N       15.07462199      14.52315356     -18.62998909
N       15.06871933      16.99602699     -14.96150501
H       14.89014235      13.90915199     -16.07701727
N       15.51614702      15.78226836     -15.42996403
O       15.77169615      17.57525315     -14.10898326
N       16.15913268      14.37097778     -11.38345123
H       16.23241178      16.27995365     -12.22408384
N       16.32822264      15.27694892     -12.37802644
N       16.30816979      13.19698353     -11.93743131
C       16.57558129      14.61684394     -13.53593576
N       16.56495723      13.31166270     -13.27822959
C       16.76826589      15.24424098     -14.88098760
H       17.11283921      14.47258734     -15.57987641
H       17.50586692      16.05508461     -14.84847330
