14
Lattice="23.8865004 0.0 0.0 0.0 23.8865004 0.0 0.0 0.0 23.8865004" Properties=species:S:1:pos:R:3 dft_energy_ryd=-158.7204947 molecule_idx=2975 crystal_idx=2591 pbc="F F F"
H        8.82731101      11.95701731     -11.01194995
O        9.60189252      11.94941020     -10.42064365
H        9.75140333      11.95745842     -13.12193121
C       10.71244826      11.94904512     -12.60254305
C       10.74957123      11.94531922     -11.20132181
H       11.87534523      11.94623533     -14.43089190
C       11.89846011      11.94451541     -13.34161105
C       11.98204187      11.93596279     -10.53884376
H       12.00512487      11.93425712      -9.44959482
C       13.13090418      11.93514343     -12.67911645
C       13.16796846      11.93142216     -11.27797300
H       14.12909556      11.92299066     -10.75851842
O       14.27852477      11.93106304     -13.45985914
H       15.05319256      11.92344384     -12.86848581
