33
Lattice="37.104593400000006 0.0 0.0 0.0 37.104593400000006 0.0 0.0 0.0 37.104593400000006" Properties=species:S:1:pos:R:3 dft_energy_ryd=-506.25759195 molecule_idx=2981 crystal_idx=2595 pbc="F F F"
H       15.76516030      20.61566093     -19.02499332
H       15.84131752      17.27130211     -17.41572269
O       16.08916702      18.55994862     -19.01227318
C       16.61193398      19.91549419     -19.03929934
C       16.60322136      17.95182735     -17.82106990
H       16.66409707      17.42617384     -21.12992338
O       16.83280243      19.01994009     -16.89366915
H       17.26922293      15.85211689     -21.73460833
H       17.21328303      20.05709950     -19.94812797
H       17.37849089      20.98071230     -17.23989511
C       17.45232596      20.01463668     -17.75019876
C       17.55539805      16.87215133     -21.44399708
O       17.88109812      16.26211777     -19.10084734
H       18.02109052      17.36797715     -22.30656736
C       17.95244228      17.22758571     -18.04608912
H       18.22027184      16.71696223     -17.10824064
C       18.53798063      16.81005097     -20.28545149
O       18.92980708      18.16282421     -19.93607601
C       18.91827821      19.63804784     -18.00776481
O       19.10715363      21.94034105     -15.75947501
C       19.06470239      18.18725229     -18.50341503
H       19.38006818      20.31418039     -18.74351839
H       19.46273236      14.90381122     -20.69529966
O       19.69282644      19.70359192     -16.75315931
C       19.76747805      15.95263406     -20.58062896
H       20.05611095      17.80594120     -18.20031007
S       20.21487905      21.19328255     -16.31266860
H       20.25172045      16.29078390     -21.50666707
H       20.48329111      16.01771673     -19.75050132
H       20.71566946      20.39552377     -14.27739168
O       21.01355415      21.72397567     -17.39514348
N       21.21842538      20.79661620     -15.07158123
H       22.00728735      20.22500738     -15.37871336
