17
Lattice="29.17738908 0.0 0.0 0.0 29.17738908 0.0 0.0 0.0 29.17738908" Properties=species:S:1:pos:R:3 dft_energy_ryd=-323.89727772 molecule_idx=2980 crystal_idx=2594 pbc="F F F"
O       11.94545683      14.61792657     -10.96715235
N       12.91286810      14.23852079     -11.63424233
N       13.21447222      15.02655913     -12.73178389
H       13.64628283      16.11756737     -14.77709763
O       13.58525278      13.20098631     -11.33814810
O       13.72465049      14.26598887     -16.75624630
C       14.26994102      14.69488466     -13.48312463
N       14.49311568      15.61571712     -14.50173793
C       14.86068940      14.73214499     -16.70526574
H       14.89987206      13.03767807     -12.57129770
N       15.12523093      13.67415720     -13.34505847
N       15.39282844      15.30030528     -15.51260790
H       15.47894024      14.22253830     -18.57458047
H       15.82217704      13.50678061     -14.06262330
N       15.74384121      14.77256847     -17.76434919
H       16.11270417      16.01495698     -15.62470198
H       16.73645776      14.92550048     -17.61476338
