15
Lattice="20.9319768 0.0 0.0 0.0 20.9319768 0.0 0.0 0.0 20.9319768" Properties=species:S:1:pos:R:3 dft_energy_ryd=-89.06318045 molecule_idx=3011 crystal_idx=2622 pbc="F F F"
H        8.00063544      10.74922528      -9.69862237
H        8.73702356       8.71364540     -11.28988747
C        8.96688338      10.57743061     -10.16780732
C        9.33380734       9.56275856     -10.96430299
H       10.03959709      12.46395310      -9.55512569
H       10.20679425      11.71107410     -12.16070058
C       10.22050301      11.45490622      -9.94029987
C       10.83518415       9.75189363     -11.28314631
C       10.85267696      11.31549932     -11.36440238
H       11.22160764       9.19049021     -12.14067629
C       11.24720806      10.60271737      -9.15764680
H       11.54369269      10.78805887      -8.12736845
C       11.61148105       9.58899927      -9.95588198
H       11.86833502      11.73073247     -11.42513171
H       12.27084267       8.75488790      -9.72527223
