21
Lattice="24.285728879999997 0.0 0.0 0.0 24.285728879999997 0.0 0.0 0.0 24.285728879999997" Properties=species:S:1:pos:R:3 dft_energy_ryd=-448.79125651 molecule_idx=3014 crystal_idx=2625 pbc="F F F"
O        9.94894493      13.82795130      -9.92943404
O       10.14636921      13.49292614     -12.42910469
H       10.17537471      11.71325398     -11.31335491
H       10.32583494      11.57111724     -13.09768060
S       10.42028197      14.51071569     -11.14380414
C       10.64779150      12.13203122     -12.21404774
O       12.08941805      14.42617413     -11.14816676
H       12.12351215      10.32178878     -10.83392884
C       12.18237541      12.12722180     -12.07748779
H       12.25893379      12.69587917      -9.96922720
O       12.36784785       9.76189957     -12.78269785
H       12.43561679      13.52109544     -13.74840052
O       12.56249849      11.61336603     -14.47000775
C       12.60925649      13.07404085     -10.94247773
C       12.65994146      10.71234706     -11.70907517
C       12.84670853      12.56934424     -13.39476658
S       13.18144519      10.09254441     -14.20554446
H       13.70024614      13.19665169     -10.91237654
H       13.74301073      10.70966644     -11.50711363
H       13.93630076      12.65631526     -13.26809017
O       14.60547200      10.24085076     -13.87039405
