22
Lattice="31.20475428 0.0 0.0 0.0 31.20475428 0.0 0.0 0.0 31.20475428" Properties=species:S:1:pos:R:3 dft_energy_ryd=-320.16595107 molecule_idx=3037 crystal_idx=2644 pbc="F F F"
O       13.61358409      17.12167789     -13.55351580
H       13.34119983      16.95060343     -12.63173335
H       14.50237993      17.22320870     -15.76960254
C       14.47776395      16.12592770     -13.96341565
C       14.90173423      16.32515832     -15.30207733
C       15.74076053      15.52938266     -16.06208417
H       14.37856600      15.18765912     -12.06174447
C       14.81516700      15.12528726     -13.06416586
C       16.37534826      14.31056526     -15.71217012
O       15.67516607      17.26874519     -17.71518918
H       16.96589186      13.84229317     -16.50163031
C       16.03657965      15.97178990     -17.48085322
C       15.65973053      13.99228814     -13.23090979
C       16.35457082      13.65082631     -14.50329449
H       15.75496260      18.81127034     -19.04373006
H       15.28164395      17.22986756     -19.78002992
C       15.94819031      17.73456490     -19.06781781
O       16.55845967      15.25685962     -18.33101437
O       15.87403131      13.16648700     -12.28768628
O       17.05349658      12.51408638     -14.36167067
H       16.99061731      17.52264535     -19.33787670
H       16.85015850      12.28880888     -13.38779080
