16
Lattice="27.30767256 0.0 0.0 0.0 27.30767256 0.0 0.0 0.0 27.30767256" Properties=species:S:1:pos:R:3 dft_energy_ryd=-239.70853494 molecule_idx=3042 crystal_idx=2648 pbc="F F F"
H       10.68682998      14.40005675     -12.78556131
C       11.77343028      14.40025540     -12.87186335
H       11.81595875      12.73189662     -14.26406568
H       12.03740766      16.06837219     -11.51721548
C       12.39170751      13.46141010     -13.69799426
C       12.53087669      15.33656878     -12.15618109
C       13.79105645      13.46506465     -13.80832764
N       13.83688812      11.61095623     -15.32558359
C       13.92654726      15.32437077     -12.26606880
H       14.52785682      16.04249768     -11.70901705
N       14.46463438      12.55159151     -14.63236912
C       14.56103092      14.39433657     -13.08916370
S       14.73464934      10.65469429     -16.23244856
H       15.48796456      12.60975979     -14.71924350
H       15.64875996      14.37852230     -13.17856101
O       16.19925153      10.98449661     -16.16118610
