15
Lattice="24.8594346 0.0 0.0 0.0 24.8594346 0.0 0.0 0.0 24.8594346" Properties=species:S:1:pos:R:3 dft_energy_ryd=-230.61853656 molecule_idx=3067 crystal_idx=2670 pbc="F F F"
O        8.91600802      12.42706108     -12.23232731
O        9.77895062      12.42706092     -10.20258801
N        9.88242184      12.42705773     -11.44553608
H       10.54545402      12.42706107     -14.06350922
C       11.22993073      12.42703027     -12.01410630
C       11.41281114      12.42705783     -13.40214486
H       12.19999467      12.42706022     -10.08806845
C       12.34799823      12.42704381     -11.16620061
N       12.62346294      12.42706120     -13.97299717
C       13.60523674      12.42705785     -11.73735384
C       13.70703609      12.42705114     -13.15397419
H       14.50236772      12.42706083     -11.11812359
N       14.92143327      12.42706095     -13.77450617
H       14.94895634      12.42706058     -14.78787847
H       15.78378360      12.42706051     -13.24653173
