16
Lattice="24.621929639999998 0.0 0.0 0.0 24.621929639999998 0.0 0.0 0.0 24.621929639999998" Properties=species:S:1:pos:R:3 dft_energy_ryd=-340.56734358 molecule_idx=3078 crystal_idx=2680 pbc="F F F"
S        9.41530728      12.47676177     -12.86178662
H        9.86622893      11.29265629     -10.75933510
C       10.35111114      11.74949764     -11.61726746
H       10.74732546      13.44669410     -14.68140497
C       10.82797534      12.91610857     -13.73664544
C       11.70598067      11.84387387     -11.85678900
C       11.98473115      12.52011993     -13.09848317
H       12.26806788      10.66138068     -10.15099448
C       12.73212835      11.32577811     -10.89383979
H       13.28293416      13.09819008     -14.71269226
C       13.34879464      12.80159871     -13.65575939
S       13.55336340      12.67321498      -9.91648069
H       13.54178254      10.77672480     -11.39619366
H       14.02007925      11.93352849     -13.57862244
S       14.21123202      14.20300545     -12.79941053
S       15.06777570      13.20568452     -11.20911292
