20
Lattice="35.724122279999996 0.0 0.0 0.0 35.724122279999996 0.0 0.0 0.0 35.724122279999996" Properties=species:S:1:pos:R:3 dft_energy_ryd=-318.88886383 molecule_idx=3073 crystal_idx=2675 pbc="F F F"
N       15.52042975      14.39709440     -20.14668296
N       15.68762398      15.69513509     -19.75163235
H       16.44471835      17.83667759     -18.78192160
C       16.73465470      15.83857635     -18.95498311
C       16.43767743      13.60119983     -19.64472179
H       16.84460662      19.73408173     -18.55968941
N       17.06769537      17.09448463     -18.46975372
H       16.46815029      12.53307140     -19.85142307
C       17.65092431      19.88403171     -17.83425019
S       17.61028674      14.37646720     -18.61759603
C       18.14688592      17.36703049     -17.64568126
N       17.88211690      21.17224297     -17.52951210
C       18.37682256      18.80446955     -17.29714152
O       18.88194856      16.45340160     -17.23639463
C       18.87695943      21.42682311     -16.65637868
C       19.40879238      19.09830558     -16.39072608
H       19.04753959      22.48061069     -16.42092517
H       19.98671092      18.27637728     -15.96746987
C       19.66289847      20.42879123     -16.06708085
H       20.45749085      20.69606062     -15.37096861
