31
Lattice="30.20165568 0.0 0.0 0.0 30.20165568 0.0 0.0 0.0 30.20165568" Properties=species:S:1:pos:R:3 dft_energy_ryd=-307.61590437 molecule_idx=3094 crystal_idx=2694 pbc="F F F"
H       12.80252763      15.59310403     -15.97971444
H       12.79615611      13.85459482     -16.29050724
H       12.83024338      14.38984524     -13.76996317
C       13.40154233      14.67727266     -15.87405697
H       13.56693510      17.03037499     -14.57444608
H       13.64216872      16.90186311     -12.79299781
C       13.73850805      14.38472142     -14.38850196
H       13.74763314      12.20239491     -14.50553235
C       14.21634160      16.75586148     -13.71981484
C       14.44709275      13.01125374     -14.25572388
H       14.54348951      15.46090169     -18.68055248
N       14.68953863      15.35773483     -13.81335240
C       14.71082478      14.79134264     -16.59202812
O       14.83820968      12.81693777     -12.88950460
H       14.99746695      13.73331586     -12.56090085
C       15.12500903      15.14096984     -17.81954291
H       15.32849711      18.62672917     -14.03942879
H       15.50287012      12.29552694     -16.07430582
C       15.50897290      17.57646180     -13.77944280
C       15.67299055      12.97812769     -15.23015371
C       15.89849120      14.40514544     -15.75685655
H       15.96044500      17.07985126     -15.85091668
C       16.01639213      15.35211214     -14.53452685
H       16.02125101      17.54158712     -12.80675278
C       16.32572161      16.82201228     -14.84496133
H       16.55671826      12.63689612     -14.67583212
C       16.59731412      14.99015031     -17.88248678
H       16.78593095      14.92811407     -13.86648848
O       17.03990702      14.52545234     -16.62766722
O       17.37454558      15.19408133     -18.79771931
H       17.40142356      17.03042132     -14.81047908
