12
Lattice="20.7734814 0.0 0.0 0.0 20.7734814 0.0 0.0 0.0 20.7734814" Properties=species:S:1:pos:R:3 dft_energy_ryd=-220.18008786 molecule_idx=3098 crystal_idx=2698 pbc="F F F"
H        8.40044649      11.67819658     -10.01931584
O        9.13158285      11.00252877     -12.48917733
C        9.45981880      11.41404007     -10.10599059
C        9.70454848      10.71702846     -11.44157582
O        9.74123177      10.52906894      -9.00620924
H       10.08566940      12.32276450     -10.04696340
N       10.67790057       9.71841921     -11.36694729
H       10.93406141       9.24314499     -12.23286890
N       11.13049417      10.16021011      -9.11010667
H       11.39978403       9.70568689      -8.23669834
C       11.48077452       9.42933292     -10.24992197
O       12.45697564       8.68286666     -10.29751269
