20
Lattice="33.50518668 0.0 0.0 0.0 33.50518668 0.0 0.0 0.0 33.50518668" Properties=species:S:1:pos:R:3 dft_energy_ryd=-436.57989841 molecule_idx=3169 crystal_idx=2757 pbc="F F F"
O       13.59456837      19.19294530     -18.49712000
O       13.98563256      20.97342827     -16.79606285
S       14.52316490      20.09951721     -17.82919924
O       15.36486585      18.87260370     -16.62535112
H       15.46900912      17.52888345     -14.85213889
O       15.66234602      20.57425813     -18.60442285
H       16.04404091      15.70637390     -13.44940543
N       16.14247924      16.83520975     -15.18788346
N       16.21923630      18.05761488     -17.27775690
C       16.49164213      15.75715861     -14.44394995
C       16.59942460      17.06642527     -16.52552522
N       17.31146816      14.78505332     -14.81692175
C       17.49844854      16.03986131     -16.93747067
C       17.78586286      14.98021828     -16.08730126
H       18.14375548      16.44554587     -18.91806681
N       18.17775171      15.82092946     -18.11314495
N       18.63642504      14.14451173     -16.79415071
C       18.87335572      14.65752381     -18.02854036
H       19.01100794      13.26812710     -16.43864062
H       19.48876275      14.21705887     -18.80019518
