38
Lattice="44.563296959999995 0.0 0.0 0.0 44.563296959999995 0.0 0.0 0.0 44.563296959999995" Properties=species:S:1:pos:R:3 dft_energy_ryd=-303.20678603 molecule_idx=3160 crystal_idx=2748 pbc="F F F"
H       17.54428315      21.86712278     -17.64349858
H       17.89169960      23.48713282     -19.49221726
C       18.39891906      21.75178638     -18.31137854
C       18.58765868      22.65982524     -19.34799376
H       19.12168356      19.98823968     -17.27287011
C       19.29547752      20.67691731     -18.09971712
C       19.69612029      22.49962129     -20.21037935
H       19.74804465      24.11280173     -21.77409930
C       20.18542318      23.22372817     -21.33698310
H       20.32583786      24.30596068     -24.10059438
C       20.40116041      20.49206236     -18.92849157
C       20.58551103      21.40495442     -19.97287092
H       21.09350441      19.66642194     -18.76254520
H       21.27888995      25.45225132     -23.10968158
C       21.31416858      24.76940012     -23.97082121
C       21.34733251      22.58128722     -21.77014108
H       21.55882757      25.34369869     -24.87036156
N       21.59386750      21.46376090     -20.93114634
N       22.32984973      23.74799112     -23.77609762
C       22.31199336      22.77003512     -22.79486059
C       22.68864402      20.62117506     -21.06946311
H       22.74174850      19.80161368     -20.35673377
H       23.34594494      25.14850912     -26.05080149
C       23.46066005      23.55944055     -24.56459066
C       23.43485930      21.93029684     -22.93660929
C       23.62853161      20.82286030     -22.04252222
C       23.90077595      24.28856340     -25.67532203
C       24.18020392      22.42784458     -24.06347404
H       24.78537132      19.11824264     -21.40826664
C       24.82186772      19.91592125     -22.16229780
H       24.87032740      19.45022274     -23.15853968
C       25.08312996      23.87896001     -26.29440522
C       25.37417110      22.04648267     -24.70611087
H       25.44711367      24.42522474     -27.16503108
H       25.75750690      20.47997179     -22.02351940
C       25.81238840      22.77074376     -25.81401179
H       25.95224352      21.19782513     -24.34367041
H       26.73470393      22.48154742     -26.31832617
