26
Lattice="35.66495772 0.0 0.0 0.0 35.66495772 0.0 0.0 0.0 35.66495772" Properties=species:S:1:pos:R:3 dft_energy_ryd=-384.28893228 molecule_idx=3174 crystal_idx=2762 pbc="F F F"
H       13.98698010      15.79567337     -16.08840228
H       14.05418002      16.12463488     -17.84717297
H       14.38665709      17.44062600     -16.67003866
C       14.50466360      16.37205963     -16.87421082
H       15.54953998      14.25871101     -17.91178395
N       15.92678190      16.04073564     -16.89883875
C       16.27886382      14.65310361     -17.19134895
H       16.26398582      14.02401994     -16.28561823
N       16.48310709      18.16308671     -16.08825785
C       16.87013506      16.90291501     -16.42834387
H       17.28611680      14.61242244     -17.62119970
S       17.60685659      19.29418974     -15.80859177
N       18.11689205      16.40478357     -16.21629234
H       18.15377638      21.04795777     -19.14348938
N       18.30349471      19.89063870     -17.14594319
H       18.85786429      20.54445009     -20.71917679
C       19.07314906      20.76061197     -19.66196924
C       19.25521053      19.16583488     -17.79312746
S       19.34611331      17.41682773     -15.90474222
N       19.62830189      19.56314693     -19.04139650
H       19.78959143      21.59847632     -19.61168987
N       19.94696920      18.14286780     -17.21989998
H       20.50237467      18.79350543     -20.77952219
C       20.76778874      18.96032846     -19.72492836
H       21.01706855      18.00878805     -19.24595252
H       21.64836296      19.62442984     -19.68288777
