39
Lattice="35.88473448 0.0 0.0 0.0 35.88473448 0.0 0.0 0.0 35.88473448" Properties=species:S:1:pos:R:3 dft_energy_ryd=-320.96376023 molecule_idx=3182 crystal_idx=2769 pbc="F F F"
H       13.88046247      17.60049874     -16.37516359
O       14.34274390      17.93789126     -17.17315352
H       15.07065989      16.69768279     -19.35806914
H       15.21702377      20.12777604     -18.42067883
C       15.23029928      18.88895644     -16.71802295
O       15.33944819      19.15907063     -15.52863406
H       15.62676567      15.49321874     -17.50440143
C       15.96936196      19.55341256     -17.85338985
C       16.12319650      16.40294308     -19.45346840
H       16.22751616      15.79457372     -20.36285497
C       16.48518762      15.47258729     -18.18893228
H       16.60081391      14.44275533     -18.55621871
H       16.68776578      16.95294210     -15.86529149
C       16.90247325      18.76715626     -18.79036313
C       17.01526018      17.61417670     -19.56951987
H       17.14206680      21.48816004     -17.65755208
C       17.23114014      20.40991490     -17.45936987
H       17.52888586      20.24907390     -16.41412693
C       17.63646474      16.82914304     -16.38638140
C       17.72672403      15.92682748     -17.45895711
C       17.99523529      19.58670172     -18.48378140
C       18.24027131      17.53978730     -20.27177511
H       18.39028104      16.71107064     -20.96717996
H       18.56489326      18.45568553     -15.32335289
C       18.70489028      17.67259364     -16.07087099
C       19.00421455      15.68605548     -17.98742309
H       19.12775437      14.93087965     -18.76619848
C       19.28622978      19.32204583     -18.93620944
C       19.33443261      18.36093924     -19.96928941
C       19.89864150      17.61912835     -16.80968266
C       20.07749271      16.51792219     -17.66195478
H       20.29659975      18.14249494     -20.43784958
H       20.46565819      20.77947023     -17.85314392
C       20.53084637      19.73456320     -18.18803345
H       20.68655922      19.44148650     -15.99679503
C       20.81288782      18.81931999     -16.89373146
H       21.02582489      16.39767402     -18.18972064
H       21.39830999      19.65809511     -18.85832010
H       21.86670879      18.50731692     -16.93212965
