18
Lattice="25.82935236 0.0 0.0 0.0 25.82935236 0.0 0.0 0.0 25.82935236" Properties=species:S:1:pos:R:3 dft_energy_ryd=-244.404245 molecule_idx=3180 crystal_idx=2767 pbc="F F F"
H       11.69213906      15.57848792     -14.53015509
C       12.08380546      14.66859975     -14.06665172
H       12.20534766      15.52882268     -12.08451206
N       12.22514322      13.62205581     -14.88154172
C       12.38581235      14.64909580     -12.70086856
H       12.47096659      11.60201492     -16.17326823
C       12.70034214      12.46253902     -14.35289450
H       12.79456530      14.41743333     -10.19798192
N       12.78513011      11.42992642     -15.22417285
H       12.85316125      12.62656985     -10.13407711
C       12.92246164      13.49673835     -12.12057479
H       13.02077864      10.50626045     -14.86738706
C       13.10460152      12.37808874     -12.97348639
C       13.23464850      13.51836077     -10.64792867
O       13.54689352      10.08381118     -13.11486893
N       13.71195447      11.15357151     -12.46946625
H       14.31989473      13.52371732     -10.48024650
O       14.38666313      11.19821550     -11.42422699
