30
Lattice="41.5588698 0.0 0.0 0.0 41.5588698 0.0 0.0 0.0 41.5588698" Properties=species:S:1:pos:R:3 dft_energy_ryd=-512.54653008 molecule_idx=3193 crystal_idx=2780 pbc="F F F"
H       16.05458965      18.55966546      21.99471125
H       16.45034956      19.72949681      23.29013581
H       16.55736145      17.95630402      23.60816351
C       16.70468087      18.75310435      22.86381591
H       17.97984094      16.83409917      21.60918738
N       18.10911200      18.75070721      22.45329500
S       18.14476200      21.43726213      22.41804959
H       18.77886833      16.89583224      23.20994894
C       18.66494772      17.41481189      22.24492751
C       18.79790903      19.91090048      22.26179781
H       19.63739774      17.45878200      21.74256222
H       20.36224905      21.88300909      20.89730989
S       20.62481613      22.13261272      18.60316400
S       20.51711441      19.65509016      21.81589606
C       21.05777433      21.37137366      21.59471793
O       21.16458920      23.49320869      22.65562713
C       21.20510165      22.14651977      22.90622273
H       21.31051365      23.92977049      23.52176368
O       21.39108263      21.66581015      24.01299169
C       22.19570444      21.91234658      19.09246923
H       22.43548856      23.43415151      16.84495057
H       22.45829453      21.72557743      16.36796562
S       22.66860311      21.33587372      20.75151262
C       23.02843762      22.50964390      16.88701925
N       23.26763666      22.12675553      18.28373379
H       23.99742155      22.65737048      16.39524080
C       24.66678818      21.94143635      18.67696994
H       24.76655289      21.91373848      19.76797472
H       25.07367260      21.00703883      18.25849935
H       25.25776697      22.78713399      18.29880357
