27
Lattice="35.6609358 0.0 0.0 0.0 35.6609358 0.0 0.0 0.0 35.6609358" Properties=species:S:1:pos:R:3 dft_energy_ryd=-341.18447684 molecule_idx=3206 crystal_idx=2792 pbc="F F F"
H       13.36352401      15.94606635     -16.87185980
S       14.23524332      17.78063722     -18.85223830
C       14.45184681      16.09295391     -16.66887095
O       14.52681337      19.68461969     -21.25127855
O       15.00753316      15.50283424     -15.73492161
C       15.13958152      17.00674870     -17.57421964
C       15.56030666      19.47218741     -20.61020838
C       15.64550125      18.60892265     -19.43921160
H       16.52822595      19.94473046     -20.90468926
C       16.48218451      17.37947580     -17.60616644
C       16.76978117      18.29877217     -18.67569976
H       17.35683799      15.70441028     -15.28289226
C       17.72443671      17.09578118     -16.88840277
C       18.09656757      16.30273575     -15.81287449
C       18.20048513      18.61326727     -18.64664985
H       18.72652058      19.98782305     -20.24002827
C       18.72585580      17.86179798     -17.55526857
C       19.06997988      19.39679932     -19.39090694
C       19.46641994      16.29101975     -15.42454498
H       19.76001395      15.66404363     -14.58204419
C       20.08497339      17.86375820     -17.18572773
C       20.43903287      17.03976016     -16.07694365
C       20.44620495      19.41608256     -19.03415352
C       20.95163336      18.67932812     -17.96833444
H       21.12709164      20.02918598     -19.62448141
H       21.47810983      16.99662156     -15.74502570
H       22.01654704      18.72088901     -17.73360942
