19
Lattice="25.17663708 0.0 0.0 0.0 25.17663708 0.0 0.0 0.0 25.17663708" Properties=species:S:1:pos:R:3 dft_energy_ryd=-144.49289277 molecule_idx=3217 crystal_idx=2802 pbc="F F F"
O        9.86081148      12.53193102     -15.40714008
H       10.52934400      10.95326597     -11.62517200
C       10.71413343      12.55307654     -14.52851119
C       11.27847737      12.06679073     -13.29294275
C       11.48783328      11.20978946     -12.10006612
C       11.93442358      13.06403837     -13.94262565
H       11.91576599      10.25681743     -12.46055031
H       11.94486621      12.70620614     -10.59862890
C       12.45632617      11.86226306     -11.09038239
H       12.67610237      11.12270849     -10.30506511
H       13.10851026      14.43060492     -11.71629088
H       13.11285307      14.84160256     -14.16077162
C       13.21104514      13.80877241     -13.79542147
C       13.73548341      13.77557762     -12.34327240
C       13.78743900      12.37422840     -11.69017095
H       13.94526232      13.31872123     -14.46036743
H       14.17895000      11.63904841     -12.41470468
H       14.52350692      12.42007861     -10.87421763
H       14.74640404      14.21201663     -12.34123661
